
Spectre (R) Circuit Simulator
Version 24.1.0.371.isr8 64bit -- 11 Jul 2025
Copyright (C) 1989-2025 Cadence Design Systems, Inc. All rights reserved
        worldwide. Cadence and Spectre are registered trademarks of Cadence
        Design Systems, Inc. All others are the property of their respective
        holders.

Includes RSA BSAFE(R) Cryptographic or Security Protocol Software from RSA
        Security, Inc.

User: natelgrw   Host: mtlcad2   HostID: 19126208   PID: 1767701
Memory  available: 496.6789 GB  physical: 540.9140 GB
Linux   : Red Hat Enterprise Linux release 8.10 (Ootpa)
CPU Type: Intel(R) Xeon(R) CPU E5-2620 v4 @ 2.10GHz
        Socket: Processors [Frequency] (Hyperthreaded Processor)
        0:       0 [3000.0] ( 16 ),  1 [3000.0] ( 17 ),  2 [3000.0] ( 18 )
                 3 [3000.0] ( 19 ),  4 [3000.0] ( 20 ),  5 [3000.0] ( 21 )
                 6 [3000.0] ( 22 ),  7 [2498.2] ( 23 )
        1:       8 [3000.0] ( 24 ),  9 [3000.0] ( 25 ), 10 [3000.0] ( 26 )
                11 [3000.0] ( 27 ), 12 [3000.0] ( 28 ), 13 [3000.0] ( 29 )
                14 [3000.0] ( 30 ), 15 [2531.6] ( 31 )
        
System load averages (1min, 5min, 15min) : 4.5 %, 5.3 %, 5.2 %
Hyperthreading is enabled


Simulating
        `/homes/natelgrw/Documents/titan_foundation_model/results/designs_single_ended_cascode_current_mirror7565/single_ended_cascode_current_mirror7565_0.17_6.0_0.11_7.0_0.13_12.0_0.24_3.0_0.17_8.0_0.16_17.0_0.25_5.0_0.11_16.0_0.43_0.3_0.14/single_ended_cascode_current_mirror7565_0.17_6.0_0.11_7.0_0.13_12.0_0.24_3.0_0.17_8.0_0.16_17.0_0.25_5.0_0.11_16.0_0.43_0.3_0.14.scs'
        on mtlcad2 at 6:32:31 PM, Thur Aug 7, 2025 (process id: 1767701).
Current working directory:
        /homes/natelgrw/Documents/titan_foundation_model/results/designs_single_ended_cascode_current_mirror7565/single_ended_cascode_current_mirror7565_0.17_6.0_0.11_7.0_0.13_12.0_0.24_3.0_0.17_8.0_0.16_17.0_0.25_5.0_0.11_16.0_0.43_0.3_0.14
Command line:
    /opt/cadence/SPECTRE/24.10.08.371/tools/bin/spectre -64  \
        /homes/natelgrw/Documents/titan_foundation_model/results/designs_single_ended_cascode_current_mirror7565/single_ended_cascode_current_mirror7565_0.17_6.0_0.11_7.0_0.13_12.0_0.24_3.0_0.17_8.0_0.16_17.0_0.25_5.0_0.11_16.0_0.43_0.3_0.14/single_ended_cascode_current_mirror7565_0.17_6.0_0.11_7.0_0.13_12.0_0.24_3.0_0.17_8.0_0.16_17.0_0.25_5.0_0.11_16.0_0.43_0.3_0.14.scs
        \
        -format psfbin \>\ /dev/null\ 2\>\&1
Licensing Information:
[18:32:31.066449] Configured Lic search path (24.01-s002): @mtlcadlic1

Licensing Information:
[18:32:31.374419] Periodic Lic check successful

Reading file: 
        /homes/natelgrw/Documents/titan_foundation_model/results/designs_single_ended_cascode_current_mirror7565/single_ended_cascode_current_mirror7565_0.17_6.0_0.11_7.0_0.13_12.0_0.24_3.0_0.17_8.0_0.16_17.0_0.25_5.0_0.11_16.0_0.43_0.3_0.14/single_ended_cascode_current_mirror7565_0.17_6.0_0.11_7.0_0.13_12.0_0.24_3.0_0.17_8.0_0.16_17.0_0.25_5.0_0.11_16.0_0.43_0.3_0.14.scs
Reading link:  /opt/cadence
Reading file: 
        /u/cadence/SPECTRE/24.10.08.371/tools.lnx86/spectre/etc/configs/spectre.cfg
Reading file:  /homes/natelgrw/Documents/titan_foundation_model/lstp/7nfet.pm
Reading file:  /homes/natelgrw/Documents/titan_foundation_model/lstp/7pfet.pm
Time for NDB Parsing: CPU = 83.375 ms, elapsed = 368.636 ms.
Time accumulated: CPU = 203.184 ms, elapsed = 368.639 ms.
Peak resident memory used = 185 Mbytes.


Warning from spectre during hierarchy flattening.
    WARNING (SFE-884):
        "/homes/natelgrw/Documents/titan_foundation_model/results/designs_single_ended_cascode_current_mirror7565/single_ended_cascode_current_mirror7565_0.17_6.0_0.11_7.0_0.13_12.0_0.24_3.0_0.17_8.0_0.16_17.0_0.25_5.0_0.11_16.0_0.43_0.3_0.14/single_ended_cascode_current_mirror7565_0.17_6.0_0.11_7.0_0.13_12.0_0.24_3.0_0.17_8.0_0.16_17.0_0.25_5.0_0.11_16.0_0.43_0.3_0.14.scs"
        53: The option 'rawfmt' is deleted because it is redefined at
        '/homes/natelgrw/Documents/titan_foundation_model/results/designs_single_ended_cascode_current_mirror7565/single_ended_cascode_current_mirror7565_0.17_6.0_0.11_7.0_0.13_12.0_0.24_3.0_0.17_8.0_0.16_17.0_0.25_5.0_0.11_16.0_0.43_0.3_0.14/single_ended_cascode_current_mirror7565_0.17_6.0_0.11_7.0_0.13_12.0_0.24_3.0_0.17_8.0_0.16_17.0_0.25_5.0_0.11_16.0_0.43_0.3_0.14.scs':line
        '85'.
Warning from spectre during hierarchy flattening.
    WARNING (SFE-32):
        "/homes/natelgrw/Documents/titan_foundation_model/lstp/7pfet.pm" 4:
        Duplicate specification for parameter `bulkmod' (using last value
        specified).
    WARNING (SFE-32):
        "/homes/natelgrw/Documents/titan_foundation_model/lstp/7nfet.pm" 4:
        Duplicate specification for parameter `bulkmod' (using last value
        specified).

Time for Elaboration: CPU = 19.139 ms, elapsed = 19.2571 ms.
Time accumulated: CPU = 222.408 ms, elapsed = 387.979 ms.
Peak resident memory used = 195 Mbytes.


Notice from spectre during hierarchy flattening.
    The value 'psf' specified for the 'checklimitdest' option will no longer be
        supported in future releases. Use 'spectre -h' to see other recommended
        values for the 'checklimitdest' option.


Time for EDB Visiting: CPU = 1.073 ms, elapsed = 1.0941 ms.
Time accumulated: CPU = 223.601 ms, elapsed = 389.191 ms.
Peak resident memory used = 198 Mbytes.


Notice from spectre during topology check.
    Only one connection to node `0'.


Global user options:
         psfversion = 1.4.0
            vabstol = 1e-06
            iabstol = 1e-12
               temp = 27
               gmin = 1e-12
             rforce = 1
           maxnotes = 5
           maxwarns = 5
             digits = 5
               cols = 80
             pivrel = 0.001
           sensfile = ../psf/sens.output
     checklimitdest = psf
               save = allpub
             rawfmt = psfbin
             reltol = 0.001
               tnom = 27
             scalem = 1
              scale = 1

Scoped user options:

Circuit inventory:
              nodes 25
            bsimcmg 15    
          capacitor 1     
           resistor 5     
               vcvs 4     
            vsource 8     

Analysis and control statement inventory:
                 ac 1     
                 dc 1     
               info 7     
              noise 1     
              sweep 3     
               tran 1     

Output statements:
             .probe 0     
           .measure 0     
               save 1     

Time for parsing: CPU = 3.133 ms, elapsed = 186.389 ms.
Time accumulated: CPU = 226.82 ms, elapsed = 575.649 ms.
Peak resident memory used = 202 Mbytes.

~~~~~~~~~~~~~~~~~~~~~~
Pre-Simulation Summary
~~~~~~~~~~~~~~~~~~~~~~
~~~~~~~~~~~~~~~~~~~~~~

*************************************************
Noise Analysis `noise': freq = (1 MHz -> 500 MHz)
*************************************************
Convergence achieved in 25 iterations.
DC simulation time: CPU = 2.63 ms, elapsed = 2.635 ms.

Opening the PSF file
        ./single_ended_cascode_current_mirror7565_0.17_6.0_0.11_7.0_0.13_12.0_0.24_3.0_0.17_8.0_0.16_17.0_0.25_5.0_0.11_16.0_0.43_0.3_0.14.raw/noise.noise
        ...
    noise: freq = 1.259 MHz    (3.7 %), step = 136.9 kHz    (1.85 %)
    noise: freq = 1.413 MHz   (5.56 %), step = 153.6 kHz    (1.85 %)
    noise: freq = 1.585 MHz   (7.41 %), step = 172.4 kHz    (1.85 %)
    noise: freq = 1.778 MHz   (9.26 %), step = 193.4 kHz    (1.85 %)
    noise: freq = 1.995 MHz   (11.1 %), step = 217 kHz      (1.85 %)
    noise: freq = 2.239 MHz     (13 %), step = 243.5 kHz    (1.85 %)
    noise: freq = 2.512 MHz   (14.8 %), step = 273.2 kHz    (1.85 %)
    noise: freq = 2.818 MHz   (16.7 %), step = 306.5 kHz    (1.85 %)
    noise: freq = 3.162 MHz   (18.5 %), step = 343.9 kHz    (1.85 %)
    noise: freq = 3.548 MHz   (20.4 %), step = 385.9 kHz    (1.85 %)
    noise: freq = 3.981 MHz   (22.2 %), step = 432.9 kHz    (1.85 %)
    noise: freq = 4.467 MHz   (24.1 %), step = 485.8 kHz    (1.85 %)
    noise: freq = 5.012 MHz   (25.9 %), step = 545 kHz      (1.85 %)
    noise: freq = 5.623 MHz   (27.8 %), step = 611.5 kHz    (1.85 %)
    noise: freq = 6.31 MHz    (29.6 %), step = 686.2 kHz    (1.85 %)
    noise: freq = 7.079 MHz   (31.5 %), step = 769.9 kHz    (1.85 %)
    noise: freq = 7.943 MHz   (33.3 %), step = 863.8 kHz    (1.85 %)
    noise: freq = 8.913 MHz   (35.2 %), step = 969.2 kHz    (1.85 %)
    noise: freq = 10 MHz        (37 %), step = 1.087 MHz    (1.85 %)
    noise: freq = 11.22 MHz   (38.9 %), step = 1.22 MHz     (1.85 %)
    noise: freq = 12.59 MHz   (40.7 %), step = 1.369 MHz    (1.85 %)
    noise: freq = 14.13 MHz   (42.6 %), step = 1.536 MHz    (1.85 %)
    noise: freq = 15.85 MHz   (44.4 %), step = 1.724 MHz    (1.85 %)
    noise: freq = 17.78 MHz   (46.3 %), step = 1.934 MHz    (1.85 %)
    noise: freq = 19.95 MHz   (48.1 %), step = 2.17 MHz     (1.85 %)
    noise: freq = 22.39 MHz     (50 %), step = 2.435 MHz    (1.85 %)
    noise: freq = 25.12 MHz   (51.9 %), step = 2.732 MHz    (1.85 %)
    noise: freq = 28.18 MHz   (53.7 %), step = 3.065 MHz    (1.85 %)
    noise: freq = 31.62 MHz   (55.6 %), step = 3.439 MHz    (1.85 %)
    noise: freq = 35.48 MHz   (57.4 %), step = 3.859 MHz    (1.85 %)
    noise: freq = 39.81 MHz   (59.3 %), step = 4.329 MHz    (1.85 %)
    noise: freq = 44.67 MHz   (61.1 %), step = 4.858 MHz    (1.85 %)
    noise: freq = 50.12 MHz     (63 %), step = 5.45 MHz     (1.85 %)
    noise: freq = 56.23 MHz   (64.8 %), step = 6.115 MHz    (1.85 %)
    noise: freq = 63.1 MHz    (66.7 %), step = 6.862 MHz    (1.85 %)
    noise: freq = 70.79 MHz   (68.5 %), step = 7.699 MHz    (1.85 %)
    noise: freq = 79.43 MHz   (70.4 %), step = 8.638 MHz    (1.85 %)
    noise: freq = 89.13 MHz   (72.2 %), step = 9.692 MHz    (1.85 %)
    noise: freq = 100 MHz     (74.1 %), step = 10.87 MHz    (1.85 %)
    noise: freq = 112.2 MHz   (75.9 %), step = 12.2 MHz     (1.85 %)
    noise: freq = 125.9 MHz   (77.8 %), step = 13.69 MHz    (1.85 %)
    noise: freq = 141.3 MHz   (79.6 %), step = 15.36 MHz    (1.85 %)
    noise: freq = 158.5 MHz   (81.5 %), step = 17.24 MHz    (1.85 %)
    noise: freq = 177.8 MHz   (83.3 %), step = 19.34 MHz    (1.85 %)
    noise: freq = 199.5 MHz   (85.2 %), step = 21.7 MHz     (1.85 %)
    noise: freq = 223.9 MHz     (87 %), step = 24.35 MHz    (1.85 %)
    noise: freq = 251.2 MHz   (88.9 %), step = 27.32 MHz    (1.85 %)
    noise: freq = 281.8 MHz   (90.7 %), step = 30.65 MHz    (1.85 %)
    noise: freq = 316.2 MHz   (92.6 %), step = 34.39 MHz    (1.85 %)
    noise: freq = 354.8 MHz   (94.4 %), step = 38.59 MHz    (1.85 %)
    noise: freq = 398.1 MHz   (96.3 %), step = 43.29 MHz    (1.85 %)
    noise: freq = 446.7 MHz   (98.1 %), step = 48.58 MHz    (1.85 %)
    noise: freq = 500 MHz      (100 %), step = 53.32 MHz    (1.85 %)
Accumulated DC solution time =            2.75207 ms.
Intrinsic noise analysis time =              77.461 ms.
Total time required for noise analysis `noise': CPU = 9.515 ms, elapsed =
        80.2681 ms, util. = 11.9%.
Time accumulated: CPU = 249.908 ms, elapsed = 798.932 ms.
Peak resident memory used = 206 Mbytes.


******************************************************
Sweep Analysis `acswp': gain_n = (-500e-03 -> 500e-03)
******************************************************

Opening the PSF file
        ./single_ended_cascode_current_mirror7565_0.17_6.0_0.11_7.0_0.13_12.0_0.24_3.0_0.17_8.0_0.16_17.0_0.25_5.0_0.11_16.0_0.43_0.3_0.14.raw/acswp_ac.sweep
        ...

++++++++++++++++++++++++++++++
acswp: gain_n = -500e-03 (0 %)
++++++++++++++++++++++++++++++
Time for acswp itNum=0: CPU = 837 us, elapsed = 1.91116 ms.
Time accumulated: CPU = 250.835 ms, elapsed = 800.931 ms.
Peak resident memory used = 206 Mbytes.


****************************************************
AC Analysis `acswp-000_ac': freq = (1 Hz -> 100 GHz)
****************************************************
Convergence achieved in 25 iterations.
DC simulation time: CPU = 2.176 ms, elapsed = 2.18797 ms.

Opening the PSF file
        ./single_ended_cascode_current_mirror7565_0.17_6.0_0.11_7.0_0.13_12.0_0.24_3.0_0.17_8.0_0.16_17.0_0.25_5.0_0.11_16.0_0.43_0.3_0.14.raw/acswp-000_ac.ac
        ...
    acswp-000_ac: freq = 1.995 Hz    (2.73 %), step = 410.4 mHz    (909 m%)
    acswp-000_ac: freq = 2.512 Hz    (3.64 %), step = 516.6 mHz    (909 m%)
    acswp-000_ac: freq = 3.162 Hz    (4.55 %), step = 650.4 mHz    (909 m%)
    acswp-000_ac: freq = 3.981 Hz    (5.45 %), step = 818.8 mHz    (909 m%)
    acswp-000_ac: freq = 5.012 Hz    (6.36 %), step = 1.031 Hz     (909 m%)
    acswp-000_ac: freq = 6.31 Hz     (7.27 %), step = 1.298 Hz     (909 m%)
    acswp-000_ac: freq = 7.943 Hz    (8.18 %), step = 1.634 Hz     (909 m%)
    acswp-000_ac: freq = 10 Hz       (9.09 %), step = 2.057 Hz     (909 m%)
    acswp-000_ac: freq = 12.59 Hz      (10 %), step = 2.589 Hz     (909 m%)
    acswp-000_ac: freq = 15.85 Hz    (10.9 %), step = 3.26 Hz      (909 m%)
    acswp-000_ac: freq = 19.95 Hz    (11.8 %), step = 4.104 Hz     (909 m%)
    acswp-000_ac: freq = 25.12 Hz    (12.7 %), step = 5.166 Hz     (909 m%)
    acswp-000_ac: freq = 31.62 Hz    (13.6 %), step = 6.504 Hz     (909 m%)
    acswp-000_ac: freq = 39.81 Hz    (14.5 %), step = 8.188 Hz     (909 m%)
    acswp-000_ac: freq = 50.12 Hz    (15.5 %), step = 10.31 Hz     (909 m%)
    acswp-000_ac: freq = 63.1 Hz     (16.4 %), step = 12.98 Hz     (909 m%)
    acswp-000_ac: freq = 79.43 Hz    (17.3 %), step = 16.34 Hz     (909 m%)
    acswp-000_ac: freq = 100 Hz      (18.2 %), step = 20.57 Hz     (909 m%)
    acswp-000_ac: freq = 125.9 Hz    (19.1 %), step = 25.89 Hz     (909 m%)
    acswp-000_ac: freq = 158.5 Hz      (20 %), step = 32.6 Hz      (909 m%)
    acswp-000_ac: freq = 199.5 Hz    (20.9 %), step = 41.04 Hz     (909 m%)
    acswp-000_ac: freq = 251.2 Hz    (21.8 %), step = 51.66 Hz     (909 m%)
    acswp-000_ac: freq = 316.2 Hz    (22.7 %), step = 65.04 Hz     (909 m%)
    acswp-000_ac: freq = 398.1 Hz    (23.6 %), step = 81.88 Hz     (909 m%)
    acswp-000_ac: freq = 501.2 Hz    (24.5 %), step = 103.1 Hz     (909 m%)
    acswp-000_ac: freq = 631 Hz      (25.5 %), step = 129.8 Hz     (909 m%)
    acswp-000_ac: freq = 794.3 Hz    (26.4 %), step = 163.4 Hz     (909 m%)
    acswp-000_ac: freq = 1 kHz       (27.3 %), step = 205.7 Hz     (909 m%)
    acswp-000_ac: freq = 1.259 kHz   (28.2 %), step = 258.9 Hz     (909 m%)
    acswp-000_ac: freq = 1.585 kHz   (29.1 %), step = 326 Hz       (909 m%)
    acswp-000_ac: freq = 1.995 kHz     (30 %), step = 410.4 Hz     (909 m%)
    acswp-000_ac: freq = 2.512 kHz   (30.9 %), step = 516.6 Hz     (909 m%)
    acswp-000_ac: freq = 3.162 kHz   (31.8 %), step = 650.4 Hz     (909 m%)
    acswp-000_ac: freq = 3.981 kHz   (32.7 %), step = 818.8 Hz     (909 m%)
    acswp-000_ac: freq = 5.012 kHz   (33.6 %), step = 1.031 kHz    (909 m%)
    acswp-000_ac: freq = 6.31 kHz    (34.5 %), step = 1.298 kHz    (909 m%)
    acswp-000_ac: freq = 7.943 kHz   (35.5 %), step = 1.634 kHz    (909 m%)
    acswp-000_ac: freq = 10 kHz      (36.4 %), step = 2.057 kHz    (909 m%)
    acswp-000_ac: freq = 12.59 kHz   (37.3 %), step = 2.589 kHz    (909 m%)
    acswp-000_ac: freq = 15.85 kHz   (38.2 %), step = 3.26 kHz     (909 m%)
    acswp-000_ac: freq = 19.95 kHz   (39.1 %), step = 4.104 kHz    (909 m%)
    acswp-000_ac: freq = 25.12 kHz     (40 %), step = 5.166 kHz    (909 m%)
    acswp-000_ac: freq = 31.62 kHz   (40.9 %), step = 6.504 kHz    (909 m%)
    acswp-000_ac: freq = 39.81 kHz   (41.8 %), step = 8.188 kHz    (909 m%)
    acswp-000_ac: freq = 50.12 kHz   (42.7 %), step = 10.31 kHz    (909 m%)
    acswp-000_ac: freq = 63.1 kHz    (43.6 %), step = 12.98 kHz    (909 m%)
    acswp-000_ac: freq = 79.43 kHz   (44.5 %), step = 16.34 kHz    (909 m%)
    acswp-000_ac: freq = 100 kHz     (45.5 %), step = 20.57 kHz    (909 m%)
    acswp-000_ac: freq = 125.9 kHz   (46.4 %), step = 25.89 kHz    (909 m%)
    acswp-000_ac: freq = 158.5 kHz   (47.3 %), step = 32.6 kHz     (909 m%)
    acswp-000_ac: freq = 199.5 kHz   (48.2 %), step = 41.04 kHz    (909 m%)
    acswp-000_ac: freq = 251.2 kHz   (49.1 %), step = 51.66 kHz    (909 m%)
    acswp-000_ac: freq = 316.2 kHz     (50 %), step = 65.04 kHz    (909 m%)
    acswp-000_ac: freq = 398.1 kHz   (50.9 %), step = 81.88 kHz    (909 m%)
    acswp-000_ac: freq = 501.2 kHz   (51.8 %), step = 103.1 kHz    (909 m%)
    acswp-000_ac: freq = 631 kHz     (52.7 %), step = 129.8 kHz    (909 m%)
    acswp-000_ac: freq = 794.3 kHz   (53.6 %), step = 163.4 kHz    (909 m%)
    acswp-000_ac: freq = 1 MHz       (54.5 %), step = 205.7 kHz    (909 m%)
    acswp-000_ac: freq = 1.259 MHz   (55.5 %), step = 258.9 kHz    (909 m%)
    acswp-000_ac: freq = 1.585 MHz   (56.4 %), step = 326 kHz      (909 m%)
    acswp-000_ac: freq = 1.995 MHz   (57.3 %), step = 410.4 kHz    (909 m%)
    acswp-000_ac: freq = 2.512 MHz   (58.2 %), step = 516.6 kHz    (909 m%)
    acswp-000_ac: freq = 3.162 MHz   (59.1 %), step = 650.4 kHz    (909 m%)
    acswp-000_ac: freq = 3.981 MHz     (60 %), step = 818.8 kHz    (909 m%)
    acswp-000_ac: freq = 5.012 MHz   (60.9 %), step = 1.031 MHz    (909 m%)
    acswp-000_ac: freq = 6.31 MHz    (61.8 %), step = 1.298 MHz    (909 m%)
    acswp-000_ac: freq = 7.943 MHz   (62.7 %), step = 1.634 MHz    (909 m%)
    acswp-000_ac: freq = 10 MHz      (63.6 %), step = 2.057 MHz    (909 m%)
    acswp-000_ac: freq = 12.59 MHz   (64.5 %), step = 2.589 MHz    (909 m%)
    acswp-000_ac: freq = 15.85 MHz   (65.5 %), step = 3.26 MHz     (909 m%)
    acswp-000_ac: freq = 19.95 MHz   (66.4 %), step = 4.104 MHz    (909 m%)
    acswp-000_ac: freq = 25.12 MHz   (67.3 %), step = 5.166 MHz    (909 m%)
    acswp-000_ac: freq = 31.62 MHz   (68.2 %), step = 6.504 MHz    (909 m%)
    acswp-000_ac: freq = 39.81 MHz   (69.1 %), step = 8.188 MHz    (909 m%)
    acswp-000_ac: freq = 50.12 MHz     (70 %), step = 10.31 MHz    (909 m%)
    acswp-000_ac: freq = 63.1 MHz    (70.9 %), step = 12.98 MHz    (909 m%)
    acswp-000_ac: freq = 79.43 MHz   (71.8 %), step = 16.34 MHz    (909 m%)
    acswp-000_ac: freq = 100 MHz     (72.7 %), step = 20.57 MHz    (909 m%)
    acswp-000_ac: freq = 125.9 MHz   (73.6 %), step = 25.89 MHz    (909 m%)
    acswp-000_ac: freq = 158.5 MHz   (74.5 %), step = 32.6 MHz     (909 m%)
    acswp-000_ac: freq = 199.5 MHz   (75.5 %), step = 41.04 MHz    (909 m%)
    acswp-000_ac: freq = 251.2 MHz   (76.4 %), step = 51.66 MHz    (909 m%)
    acswp-000_ac: freq = 316.2 MHz   (77.3 %), step = 65.04 MHz    (909 m%)
    acswp-000_ac: freq = 398.1 MHz   (78.2 %), step = 81.88 MHz    (909 m%)
    acswp-000_ac: freq = 501.2 MHz   (79.1 %), step = 103.1 MHz    (909 m%)
    acswp-000_ac: freq = 631 MHz       (80 %), step = 129.8 MHz    (909 m%)
    acswp-000_ac: freq = 794.3 MHz   (80.9 %), step = 163.4 MHz    (909 m%)
    acswp-000_ac: freq = 1 GHz       (81.8 %), step = 205.7 MHz    (909 m%)
    acswp-000_ac: freq = 1.259 GHz   (82.7 %), step = 258.9 MHz    (909 m%)
    acswp-000_ac: freq = 1.585 GHz   (83.6 %), step = 326 MHz      (909 m%)
    acswp-000_ac: freq = 1.995 GHz   (84.5 %), step = 410.4 MHz    (909 m%)
    acswp-000_ac: freq = 2.512 GHz   (85.5 %), step = 516.6 MHz    (909 m%)
    acswp-000_ac: freq = 3.162 GHz   (86.4 %), step = 650.4 MHz    (909 m%)
    acswp-000_ac: freq = 3.981 GHz   (87.3 %), step = 818.8 MHz    (909 m%)
    acswp-000_ac: freq = 5.012 GHz   (88.2 %), step = 1.031 GHz    (909 m%)
    acswp-000_ac: freq = 6.31 GHz    (89.1 %), step = 1.298 GHz    (909 m%)
    acswp-000_ac: freq = 7.943 GHz     (90 %), step = 1.634 GHz    (909 m%)
    acswp-000_ac: freq = 10 GHz      (90.9 %), step = 2.057 GHz    (909 m%)
    acswp-000_ac: freq = 12.59 GHz   (91.8 %), step = 2.589 GHz    (909 m%)
    acswp-000_ac: freq = 15.85 GHz   (92.7 %), step = 3.26 GHz     (909 m%)
    acswp-000_ac: freq = 19.95 GHz   (93.6 %), step = 4.104 GHz    (909 m%)
    acswp-000_ac: freq = 25.12 GHz   (94.5 %), step = 5.166 GHz    (909 m%)
    acswp-000_ac: freq = 31.62 GHz   (95.5 %), step = 6.504 GHz    (909 m%)
    acswp-000_ac: freq = 39.81 GHz   (96.4 %), step = 8.188 GHz    (909 m%)
    acswp-000_ac: freq = 50.12 GHz   (97.3 %), step = 10.31 GHz    (909 m%)
    acswp-000_ac: freq = 63.1 GHz    (98.2 %), step = 12.98 GHz    (909 m%)
    acswp-000_ac: freq = 79.43 GHz   (99.1 %), step = 16.34 GHz    (909 m%)
    acswp-000_ac: freq = 100 GHz      (100 %), step = 20.57 GHz    (909 m%)
Accumulated DC solution time =            2.22301 ms.
Intrinsic ac analysis time =              31.9989 ms.
Total time required for ac analysis `acswp-000_ac': CPU = 9.616 ms, elapsed =
        34.2441 ms, util. = 28.1%.
Time accumulated: CPU = 261.254 ms, elapsed = 1.1517 s.
Peak resident memory used = 208 Mbytes.


+++++++++++++++++++++++++++++++
acswp: gain_n = 500e-03 (100 %)
+++++++++++++++++++++++++++++++
Time for acswp itNum=1: CPU = 1.028 ms, elapsed = 1.03283 ms.
Time accumulated: CPU = 262.439 ms, elapsed = 1.15289 s.
Peak resident memory used = 208 Mbytes.


****************************************************
AC Analysis `acswp-001_ac': freq = (1 Hz -> 100 GHz)
****************************************************
Convergence achieved in 25 iterations.
DC simulation time: CPU = 2.459 ms, elapsed = 2.46596 ms.

Opening the PSF file
        ./single_ended_cascode_current_mirror7565_0.17_6.0_0.11_7.0_0.13_12.0_0.24_3.0_0.17_8.0_0.16_17.0_0.25_5.0_0.11_16.0_0.43_0.3_0.14.raw/acswp-001_ac.ac
        ...
    acswp-001_ac: freq = 1.995 Hz    (2.73 %), step = 410.4 mHz    (909 m%)
    acswp-001_ac: freq = 2.512 Hz    (3.64 %), step = 516.6 mHz    (909 m%)
    acswp-001_ac: freq = 3.162 Hz    (4.55 %), step = 650.4 mHz    (909 m%)
    acswp-001_ac: freq = 3.981 Hz    (5.45 %), step = 818.8 mHz    (909 m%)
    acswp-001_ac: freq = 5.012 Hz    (6.36 %), step = 1.031 Hz     (909 m%)
    acswp-001_ac: freq = 6.31 Hz     (7.27 %), step = 1.298 Hz     (909 m%)
    acswp-001_ac: freq = 7.943 Hz    (8.18 %), step = 1.634 Hz     (909 m%)
    acswp-001_ac: freq = 10 Hz       (9.09 %), step = 2.057 Hz     (909 m%)
    acswp-001_ac: freq = 12.59 Hz      (10 %), step = 2.589 Hz     (909 m%)
    acswp-001_ac: freq = 15.85 Hz    (10.9 %), step = 3.26 Hz      (909 m%)
    acswp-001_ac: freq = 19.95 Hz    (11.8 %), step = 4.104 Hz     (909 m%)
    acswp-001_ac: freq = 25.12 Hz    (12.7 %), step = 5.166 Hz     (909 m%)
    acswp-001_ac: freq = 31.62 Hz    (13.6 %), step = 6.504 Hz     (909 m%)
    acswp-001_ac: freq = 39.81 Hz    (14.5 %), step = 8.188 Hz     (909 m%)
    acswp-001_ac: freq = 50.12 Hz    (15.5 %), step = 10.31 Hz     (909 m%)
    acswp-001_ac: freq = 63.1 Hz     (16.4 %), step = 12.98 Hz     (909 m%)
    acswp-001_ac: freq = 79.43 Hz    (17.3 %), step = 16.34 Hz     (909 m%)
    acswp-001_ac: freq = 100 Hz      (18.2 %), step = 20.57 Hz     (909 m%)
    acswp-001_ac: freq = 125.9 Hz    (19.1 %), step = 25.89 Hz     (909 m%)
    acswp-001_ac: freq = 158.5 Hz      (20 %), step = 32.6 Hz      (909 m%)
    acswp-001_ac: freq = 199.5 Hz    (20.9 %), step = 41.04 Hz     (909 m%)
    acswp-001_ac: freq = 251.2 Hz    (21.8 %), step = 51.66 Hz     (909 m%)
    acswp-001_ac: freq = 316.2 Hz    (22.7 %), step = 65.04 Hz     (909 m%)
    acswp-001_ac: freq = 398.1 Hz    (23.6 %), step = 81.88 Hz     (909 m%)
    acswp-001_ac: freq = 501.2 Hz    (24.5 %), step = 103.1 Hz     (909 m%)
    acswp-001_ac: freq = 631 Hz      (25.5 %), step = 129.8 Hz     (909 m%)
    acswp-001_ac: freq = 794.3 Hz    (26.4 %), step = 163.4 Hz     (909 m%)
    acswp-001_ac: freq = 1 kHz       (27.3 %), step = 205.7 Hz     (909 m%)
    acswp-001_ac: freq = 1.259 kHz   (28.2 %), step = 258.9 Hz     (909 m%)
    acswp-001_ac: freq = 1.585 kHz   (29.1 %), step = 326 Hz       (909 m%)
    acswp-001_ac: freq = 1.995 kHz     (30 %), step = 410.4 Hz     (909 m%)
    acswp-001_ac: freq = 2.512 kHz   (30.9 %), step = 516.6 Hz     (909 m%)
    acswp-001_ac: freq = 3.162 kHz   (31.8 %), step = 650.4 Hz     (909 m%)
    acswp-001_ac: freq = 3.981 kHz   (32.7 %), step = 818.8 Hz     (909 m%)
    acswp-001_ac: freq = 5.012 kHz   (33.6 %), step = 1.031 kHz    (909 m%)
    acswp-001_ac: freq = 6.31 kHz    (34.5 %), step = 1.298 kHz    (909 m%)
    acswp-001_ac: freq = 7.943 kHz   (35.5 %), step = 1.634 kHz    (909 m%)
    acswp-001_ac: freq = 10 kHz      (36.4 %), step = 2.057 kHz    (909 m%)
    acswp-001_ac: freq = 12.59 kHz   (37.3 %), step = 2.589 kHz    (909 m%)
    acswp-001_ac: freq = 15.85 kHz   (38.2 %), step = 3.26 kHz     (909 m%)
    acswp-001_ac: freq = 19.95 kHz   (39.1 %), step = 4.104 kHz    (909 m%)
    acswp-001_ac: freq = 25.12 kHz     (40 %), step = 5.166 kHz    (909 m%)
    acswp-001_ac: freq = 31.62 kHz   (40.9 %), step = 6.504 kHz    (909 m%)
    acswp-001_ac: freq = 39.81 kHz   (41.8 %), step = 8.188 kHz    (909 m%)
    acswp-001_ac: freq = 50.12 kHz   (42.7 %), step = 10.31 kHz    (909 m%)
    acswp-001_ac: freq = 63.1 kHz    (43.6 %), step = 12.98 kHz    (909 m%)
    acswp-001_ac: freq = 79.43 kHz   (44.5 %), step = 16.34 kHz    (909 m%)
    acswp-001_ac: freq = 100 kHz     (45.5 %), step = 20.57 kHz    (909 m%)
    acswp-001_ac: freq = 125.9 kHz   (46.4 %), step = 25.89 kHz    (909 m%)
    acswp-001_ac: freq = 158.5 kHz   (47.3 %), step = 32.6 kHz     (909 m%)
    acswp-001_ac: freq = 199.5 kHz   (48.2 %), step = 41.04 kHz    (909 m%)
    acswp-001_ac: freq = 251.2 kHz   (49.1 %), step = 51.66 kHz    (909 m%)
    acswp-001_ac: freq = 316.2 kHz     (50 %), step = 65.04 kHz    (909 m%)
    acswp-001_ac: freq = 398.1 kHz   (50.9 %), step = 81.88 kHz    (909 m%)
    acswp-001_ac: freq = 501.2 kHz   (51.8 %), step = 103.1 kHz    (909 m%)
    acswp-001_ac: freq = 631 kHz     (52.7 %), step = 129.8 kHz    (909 m%)
    acswp-001_ac: freq = 794.3 kHz   (53.6 %), step = 163.4 kHz    (909 m%)
    acswp-001_ac: freq = 1 MHz       (54.5 %), step = 205.7 kHz    (909 m%)
    acswp-001_ac: freq = 1.259 MHz   (55.5 %), step = 258.9 kHz    (909 m%)
    acswp-001_ac: freq = 1.585 MHz   (56.4 %), step = 326 kHz      (909 m%)
    acswp-001_ac: freq = 1.995 MHz   (57.3 %), step = 410.4 kHz    (909 m%)
    acswp-001_ac: freq = 2.512 MHz   (58.2 %), step = 516.6 kHz    (909 m%)
    acswp-001_ac: freq = 3.162 MHz   (59.1 %), step = 650.4 kHz    (909 m%)
    acswp-001_ac: freq = 3.981 MHz     (60 %), step = 818.8 kHz    (909 m%)
    acswp-001_ac: freq = 5.012 MHz   (60.9 %), step = 1.031 MHz    (909 m%)
    acswp-001_ac: freq = 6.31 MHz    (61.8 %), step = 1.298 MHz    (909 m%)
    acswp-001_ac: freq = 7.943 MHz   (62.7 %), step = 1.634 MHz    (909 m%)
    acswp-001_ac: freq = 10 MHz      (63.6 %), step = 2.057 MHz    (909 m%)
    acswp-001_ac: freq = 12.59 MHz   (64.5 %), step = 2.589 MHz    (909 m%)
    acswp-001_ac: freq = 15.85 MHz   (65.5 %), step = 3.26 MHz     (909 m%)
    acswp-001_ac: freq = 19.95 MHz   (66.4 %), step = 4.104 MHz    (909 m%)
    acswp-001_ac: freq = 25.12 MHz   (67.3 %), step = 5.166 MHz    (909 m%)
    acswp-001_ac: freq = 31.62 MHz   (68.2 %), step = 6.504 MHz    (909 m%)
    acswp-001_ac: freq = 39.81 MHz   (69.1 %), step = 8.188 MHz    (909 m%)
    acswp-001_ac: freq = 50.12 MHz     (70 %), step = 10.31 MHz    (909 m%)
    acswp-001_ac: freq = 63.1 MHz    (70.9 %), step = 12.98 MHz    (909 m%)
    acswp-001_ac: freq = 79.43 MHz   (71.8 %), step = 16.34 MHz    (909 m%)
    acswp-001_ac: freq = 100 MHz     (72.7 %), step = 20.57 MHz    (909 m%)
    acswp-001_ac: freq = 125.9 MHz   (73.6 %), step = 25.89 MHz    (909 m%)
    acswp-001_ac: freq = 158.5 MHz   (74.5 %), step = 32.6 MHz     (909 m%)
    acswp-001_ac: freq = 199.5 MHz   (75.5 %), step = 41.04 MHz    (909 m%)
    acswp-001_ac: freq = 251.2 MHz   (76.4 %), step = 51.66 MHz    (909 m%)
    acswp-001_ac: freq = 316.2 MHz   (77.3 %), step = 65.04 MHz    (909 m%)
    acswp-001_ac: freq = 398.1 MHz   (78.2 %), step = 81.88 MHz    (909 m%)
    acswp-001_ac: freq = 501.2 MHz   (79.1 %), step = 103.1 MHz    (909 m%)
    acswp-001_ac: freq = 631 MHz       (80 %), step = 129.8 MHz    (909 m%)
    acswp-001_ac: freq = 794.3 MHz   (80.9 %), step = 163.4 MHz    (909 m%)
    acswp-001_ac: freq = 1 GHz       (81.8 %), step = 205.7 MHz    (909 m%)
    acswp-001_ac: freq = 1.259 GHz   (82.7 %), step = 258.9 MHz    (909 m%)
    acswp-001_ac: freq = 1.585 GHz   (83.6 %), step = 326 MHz      (909 m%)
    acswp-001_ac: freq = 1.995 GHz   (84.5 %), step = 410.4 MHz    (909 m%)
    acswp-001_ac: freq = 2.512 GHz   (85.5 %), step = 516.6 MHz    (909 m%)
    acswp-001_ac: freq = 3.162 GHz   (86.4 %), step = 650.4 MHz    (909 m%)
    acswp-001_ac: freq = 3.981 GHz   (87.3 %), step = 818.8 MHz    (909 m%)
    acswp-001_ac: freq = 5.012 GHz   (88.2 %), step = 1.031 GHz    (909 m%)
    acswp-001_ac: freq = 6.31 GHz    (89.1 %), step = 1.298 GHz    (909 m%)
    acswp-001_ac: freq = 7.943 GHz     (90 %), step = 1.634 GHz    (909 m%)
    acswp-001_ac: freq = 10 GHz      (90.9 %), step = 2.057 GHz    (909 m%)
    acswp-001_ac: freq = 12.59 GHz   (91.8 %), step = 2.589 GHz    (909 m%)
    acswp-001_ac: freq = 15.85 GHz   (92.7 %), step = 3.26 GHz     (909 m%)
    acswp-001_ac: freq = 19.95 GHz   (93.6 %), step = 4.104 GHz    (909 m%)
    acswp-001_ac: freq = 25.12 GHz   (94.5 %), step = 5.166 GHz    (909 m%)
    acswp-001_ac: freq = 31.62 GHz   (95.5 %), step = 6.504 GHz    (909 m%)
    acswp-001_ac: freq = 39.81 GHz   (96.4 %), step = 8.188 GHz    (909 m%)
    acswp-001_ac: freq = 50.12 GHz   (97.3 %), step = 10.31 GHz    (909 m%)
    acswp-001_ac: freq = 63.1 GHz    (98.2 %), step = 12.98 GHz    (909 m%)
    acswp-001_ac: freq = 79.43 GHz   (99.1 %), step = 16.34 GHz    (909 m%)
    acswp-001_ac: freq = 100 GHz      (100 %), step = 20.57 GHz    (909 m%)
Accumulated DC solution time =            2.52008 ms.
Intrinsic ac analysis time =              162.663 ms.
Total time required for ac analysis `acswp-001_ac': CPU = 9.806 ms, elapsed =
        165.397 ms, util. = 5.93%.
Time accumulated: CPU = 272.741 ms, elapsed = 1.32432 s.
Peak resident memory used = 208 Mbytes.

Total time required for sweep analysis `acswp': CPU = 22.89 ms, elapsed =
        527.791 ms, util. = 4.34%.
Time accumulated: CPU = 273.283 ms, elapsed = 1.32721 s.
Peak resident memory used = 208 Mbytes.


*********************************************************
Sweep Analysis `dcswp': dc_offset = (-500e-03 -> 500e-03)
*********************************************************

Opening the PSF file
        ./single_ended_cascode_current_mirror7565_0.17_6.0_0.11_7.0_0.13_12.0_0.24_3.0_0.17_8.0_0.16_17.0_0.25_5.0_0.11_16.0_0.43_0.3_0.14.raw/dcswp_dcOp.sweep
        ...

+++++++++++++++++++++++++++++++++
dcswp: dc_offset = -500e-03 (0 %)
+++++++++++++++++++++++++++++++++
Time for dcswp itNum=0: CPU = 1.446 ms, elapsed = 2.39086 ms.
Time accumulated: CPU = 274.809 ms, elapsed = 1.32968 s.
Peak resident memory used = 208 Mbytes.


****************************
DC Analysis `dcswp-000_dcOp'
****************************

Opening the PSF file
        ./single_ended_cascode_current_mirror7565_0.17_6.0_0.11_7.0_0.13_12.0_0.24_3.0_0.17_8.0_0.16_17.0_0.25_5.0_0.11_16.0_0.43_0.3_0.14.raw/dcswp-000_dcOp.dc
        ...
Important parameter values:
    reltol = 1e-03
    abstol(V) = 1 uV
    abstol(I) = 1 pA
    temp = 27 C
    tnom = 27 C
    tempeffects = all
    gmindc = 1 pS

Notice from spectre at dc_offset = -500e-03 during DC analysis
        `dcswp-000_dcOp', during Sweep analysis `dcswp'.
    GminDC = 1 pS is large enough to noticeably affect the DC solution.
        dV(MM5:int_di) = 25.5133 mV
        Use the `gmin_check' option to eliminate or expand this report.

writing solution to
        /homes/natelgrw/Documents/titan_foundation_model/results/designs_single_ended_cascode_current_mirror7565/single_ended_cascode_current_mirror7565_0.17_6.0_0.11_7.0_0.13_12.0_0.24_3.0_0.17_8.0_0.16_17.0_0.25_5.0_0.11_16.0_0.43_0.3_0.14/spectre.dc

Maximum value achieved for any signal of each quantity: 
V: V(vdd!) = 1 V
I: I(V0:p) = 422.9 nA
Convergence achieved in 29 iterations.
DC simulation time: CPU = 5.362 ms, elapsed = 110.015 ms.
Total time required for dc analysis `dcswp-000_dcOp': CPU = 5.553 ms, elapsed =
        110.203 ms, util. = 5.04%.
Time accumulated: CPU = 281.245 ms, elapsed = 1.5157 s.
Peak resident memory used = 208 Mbytes.


++++++++++++++++++++++++++++++++++++
dcswp: dc_offset = -499e-03 (100 m%)
++++++++++++++++++++++++++++++++++++
Time for dcswp itNum=1: CPU = 240 us, elapsed = 239.849 us.
Time accumulated: CPU = 281.554 ms, elapsed = 1.51601 s.
Peak resident memory used = 208 Mbytes.


****************************
DC Analysis `dcswp-001_dcOp'
****************************

Opening the PSF file
        ./single_ended_cascode_current_mirror7565_0.17_6.0_0.11_7.0_0.13_12.0_0.24_3.0_0.17_8.0_0.16_17.0_0.25_5.0_0.11_16.0_0.43_0.3_0.14.raw/dcswp-001_dcOp.dc
        ...
Important parameter values:
    reltol = 1e-03
    abstol(V) = 1 uV
    abstol(I) = 1 pA
    temp = 27 C
    tnom = 27 C
    tempeffects = all
    gmindc = 1 pS

Notice from spectre at dc_offset = -499e-03 during DC analysis
        `dcswp-001_dcOp', during Sweep analysis `dcswp'.
    GminDC = 1 pS is large enough to noticeably affect the DC solution.
        dV(MM5:int_di) = 25.5133 mV
        Use the `gmin_check' option to eliminate or expand this report.

writing solution to
        /homes/natelgrw/Documents/titan_foundation_model/results/designs_single_ended_cascode_current_mirror7565/single_ended_cascode_current_mirror7565_0.17_6.0_0.11_7.0_0.13_12.0_0.24_3.0_0.17_8.0_0.16_17.0_0.25_5.0_0.11_16.0_0.43_0.3_0.14/spectre.dc

Maximum value achieved for any signal of each quantity: 
V: V(vdd!) = 1 V
I: I(V0:p) = 422.5 nA
Convergence achieved in 29 iterations.
DC simulation time: CPU = 4.887 ms, elapsed = 76.611 ms.
Total time required for dc analysis `dcswp-001_dcOp': CPU = 4.946 ms, elapsed =
        76.6702 ms, util. = 6.45%.
Time accumulated: CPU = 287.01 ms, elapsed = 1.64568 s.
Peak resident memory used = 208 Mbytes.


++++++++++++++++++++++++++++++++++++
dcswp: dc_offset = -498e-03 (200 m%)
++++++++++++++++++++++++++++++++++++
Time for dcswp itNum=2: CPU = 212 us, elapsed = 217.915 us.
Time accumulated: CPU = 287.306 ms, elapsed = 1.64598 s.
Peak resident memory used = 208 Mbytes.


****************************
DC Analysis `dcswp-002_dcOp'
****************************

Opening the PSF file
        ./single_ended_cascode_current_mirror7565_0.17_6.0_0.11_7.0_0.13_12.0_0.24_3.0_0.17_8.0_0.16_17.0_0.25_5.0_0.11_16.0_0.43_0.3_0.14.raw/dcswp-002_dcOp.dc
        ...
Important parameter values:
    reltol = 1e-03
    abstol(V) = 1 uV
    abstol(I) = 1 pA
    temp = 27 C
    tnom = 27 C
    tempeffects = all
    gmindc = 1 pS

Notice from spectre at dc_offset = -498e-03 during DC analysis
        `dcswp-002_dcOp', during Sweep analysis `dcswp'.
    GminDC = 1 pS is large enough to noticeably affect the DC solution.
        dV(MM5:int_di) = 25.5133 mV
        Use the `gmin_check' option to eliminate or expand this report.

writing solution to
        /homes/natelgrw/Documents/titan_foundation_model/results/designs_single_ended_cascode_current_mirror7565/single_ended_cascode_current_mirror7565_0.17_6.0_0.11_7.0_0.13_12.0_0.24_3.0_0.17_8.0_0.16_17.0_0.25_5.0_0.11_16.0_0.43_0.3_0.14/spectre.dc

Maximum value achieved for any signal of each quantity: 
V: V(vdd!) = 1 V
I: I(V0:p) = 422.1 nA
Convergence achieved in 29 iterations.
DC simulation time: CPU = 4.736 ms, elapsed = 11.7021 ms.
Total time required for dc analysis `dcswp-002_dcOp': CPU = 4.788 ms, elapsed =
        11.7531 ms, util. = 40.7%.
Time accumulated: CPU = 292.539 ms, elapsed = 1.66697 s.
Peak resident memory used = 208 Mbytes.


++++++++++++++++++++++++++++++++++++
dcswp: dc_offset = -497e-03 (300 m%)
++++++++++++++++++++++++++++++++++++
Time for dcswp itNum=3: CPU = 112 us, elapsed = 112.057 us.
Time accumulated: CPU = 292.711 ms, elapsed = 1.66715 s.
Peak resident memory used = 208 Mbytes.


****************************
DC Analysis `dcswp-003_dcOp'
****************************

Opening the PSF file
        ./single_ended_cascode_current_mirror7565_0.17_6.0_0.11_7.0_0.13_12.0_0.24_3.0_0.17_8.0_0.16_17.0_0.25_5.0_0.11_16.0_0.43_0.3_0.14.raw/dcswp-003_dcOp.dc
        ...
Important parameter values:
    reltol = 1e-03
    abstol(V) = 1 uV
    abstol(I) = 1 pA
    temp = 27 C
    tnom = 27 C
    tempeffects = all
    gmindc = 1 pS

Notice from spectre at dc_offset = -497e-03 during DC analysis
        `dcswp-003_dcOp', during Sweep analysis `dcswp'.
    GminDC = 1 pS is large enough to noticeably affect the DC solution.
        dV(MM5:int_di) = 25.5133 mV
        Use the `gmin_check' option to eliminate or expand this report.

writing solution to
        /homes/natelgrw/Documents/titan_foundation_model/results/designs_single_ended_cascode_current_mirror7565/single_ended_cascode_current_mirror7565_0.17_6.0_0.11_7.0_0.13_12.0_0.24_3.0_0.17_8.0_0.16_17.0_0.25_5.0_0.11_16.0_0.43_0.3_0.14/spectre.dc

Maximum value achieved for any signal of each quantity: 
V: V(vdd!) = 1 V
I: I(V0:p) = 421.6 nA
Convergence achieved in 30 iterations.
DC simulation time: CPU = 4.493 ms, elapsed = 30.483 ms.
Total time required for dc analysis `dcswp-003_dcOp': CPU = 4.545 ms, elapsed =
        30.5331 ms, util. = 14.9%.
Time accumulated: CPU = 297.83 ms, elapsed = 1.70266 s.
Peak resident memory used = 208 Mbytes.


++++++++++++++++++++++++++++++++++++
dcswp: dc_offset = -496e-03 (400 m%)
++++++++++++++++++++++++++++++++++++
Time for dcswp itNum=4: CPU = 190 us, elapsed = 194.073 us.
Time accumulated: CPU = 298.077 ms, elapsed = 1.70291 s.
Peak resident memory used = 208 Mbytes.


****************************
DC Analysis `dcswp-004_dcOp'
****************************

Opening the PSF file
        ./single_ended_cascode_current_mirror7565_0.17_6.0_0.11_7.0_0.13_12.0_0.24_3.0_0.17_8.0_0.16_17.0_0.25_5.0_0.11_16.0_0.43_0.3_0.14.raw/dcswp-004_dcOp.dc
        ...
Important parameter values:
    reltol = 1e-03
    abstol(V) = 1 uV
    abstol(I) = 1 pA
    temp = 27 C
    tnom = 27 C
    tempeffects = all
    gmindc = 1 pS

Notice from spectre at dc_offset = -496e-03 during DC analysis
        `dcswp-004_dcOp', during Sweep analysis `dcswp'.
    GminDC = 1 pS is large enough to noticeably affect the DC solution.
        dV(MM5:int_di) = 25.5133 mV
        Use the `gmin_check' option to eliminate or expand this report.

writing solution to
        /homes/natelgrw/Documents/titan_foundation_model/results/designs_single_ended_cascode_current_mirror7565/single_ended_cascode_current_mirror7565_0.17_6.0_0.11_7.0_0.13_12.0_0.24_3.0_0.17_8.0_0.16_17.0_0.25_5.0_0.11_16.0_0.43_0.3_0.14/spectre.dc

Maximum value achieved for any signal of each quantity: 
V: V(vdd!) = 1 V
I: I(V0:p) = 421.2 nA
Convergence achieved in 30 iterations.
DC simulation time: CPU = 4.892 ms, elapsed = 12.805 ms.
Total time required for dc analysis `dcswp-004_dcOp': CPU = 5.084 ms, elapsed =
        12.9342 ms, util. = 39.3%.
Time accumulated: CPU = 303.687 ms, elapsed = 1.77325 s.
Peak resident memory used = 208 Mbytes.


++++++++++++++++++++++++++++++++++++
dcswp: dc_offset = -495e-03 (500 m%)
++++++++++++++++++++++++++++++++++++
Time for dcswp itNum=5: CPU = 114 us, elapsed = 115.156 us.
Time accumulated: CPU = 303.866 ms, elapsed = 1.77343 s.
Peak resident memory used = 208 Mbytes.


****************************
DC Analysis `dcswp-005_dcOp'
****************************

Opening the PSF file
        ./single_ended_cascode_current_mirror7565_0.17_6.0_0.11_7.0_0.13_12.0_0.24_3.0_0.17_8.0_0.16_17.0_0.25_5.0_0.11_16.0_0.43_0.3_0.14.raw/dcswp-005_dcOp.dc
        ...
Important parameter values:
    reltol = 1e-03
    abstol(V) = 1 uV
    abstol(I) = 1 pA
    temp = 27 C
    tnom = 27 C
    tempeffects = all
    gmindc = 1 pS

Notice from spectre at dc_offset = -495e-03 during DC analysis
        `dcswp-005_dcOp', during Sweep analysis `dcswp'.
    GminDC = 1 pS is large enough to noticeably affect the DC solution.
        dV(MM5:int_di) = 25.5133 mV
        Use the `gmin_check' option to eliminate or expand this report.

writing solution to
        /homes/natelgrw/Documents/titan_foundation_model/results/designs_single_ended_cascode_current_mirror7565/single_ended_cascode_current_mirror7565_0.17_6.0_0.11_7.0_0.13_12.0_0.24_3.0_0.17_8.0_0.16_17.0_0.25_5.0_0.11_16.0_0.43_0.3_0.14/spectre.dc

Maximum value achieved for any signal of each quantity: 
V: V(vdd!) = 1 V
I: I(V0:p) = 420.8 nA
Convergence achieved in 31 iterations.
DC simulation time: CPU = 4.187 ms, elapsed = 14.565 ms.
Total time required for dc analysis `dcswp-005_dcOp': CPU = 4.232 ms, elapsed =
        14.6089 ms, util. = 29%.
Time accumulated: CPU = 308.559 ms, elapsed = 1.80622 s.
Peak resident memory used = 208 Mbytes.


++++++++++++++++++++++++++++++++++++
dcswp: dc_offset = -494e-03 (600 m%)
++++++++++++++++++++++++++++++++++++
Time for dcswp itNum=6: CPU = 93 us, elapsed = 93.9369 us.
Time accumulated: CPU = 308.714 ms, elapsed = 1.80638 s.
Peak resident memory used = 208 Mbytes.


****************************
DC Analysis `dcswp-006_dcOp'
****************************

Opening the PSF file
        ./single_ended_cascode_current_mirror7565_0.17_6.0_0.11_7.0_0.13_12.0_0.24_3.0_0.17_8.0_0.16_17.0_0.25_5.0_0.11_16.0_0.43_0.3_0.14.raw/dcswp-006_dcOp.dc
        ...
Important parameter values:
    reltol = 1e-03
    abstol(V) = 1 uV
    abstol(I) = 1 pA
    temp = 27 C
    tnom = 27 C
    tempeffects = all
    gmindc = 1 pS

Notice from spectre at dc_offset = -494e-03 during DC analysis
        `dcswp-006_dcOp', during Sweep analysis `dcswp'.
    GminDC = 1 pS is large enough to noticeably affect the DC solution.
        dV(MM5:int_di) = 25.5133 mV
        Use the `gmin_check' option to eliminate or expand this report.

writing solution to
        /homes/natelgrw/Documents/titan_foundation_model/results/designs_single_ended_cascode_current_mirror7565/single_ended_cascode_current_mirror7565_0.17_6.0_0.11_7.0_0.13_12.0_0.24_3.0_0.17_8.0_0.16_17.0_0.25_5.0_0.11_16.0_0.43_0.3_0.14/spectre.dc

Maximum value achieved for any signal of each quantity: 
V: V(vdd!) = 1 V
I: I(V0:p) = 420.4 nA
Convergence achieved in 31 iterations.
DC simulation time: CPU = 4.198 ms, elapsed = 11.4591 ms.
Total time required for dc analysis `dcswp-006_dcOp': CPU = 4.262 ms, elapsed =
        11.5199 ms, util. = 37%.
Time accumulated: CPU = 313.448 ms, elapsed = 1.82242 s.
Peak resident memory used = 208 Mbytes.


++++++++++++++++++++++++++++++++++++
dcswp: dc_offset = -493e-03 (700 m%)
++++++++++++++++++++++++++++++++++++
Time for dcswp itNum=7: CPU = 90 us, elapsed = 90.1222 us.
Time accumulated: CPU = 313.593 ms, elapsed = 1.82256 s.
Peak resident memory used = 208 Mbytes.


****************************
DC Analysis `dcswp-007_dcOp'
****************************

Opening the PSF file
        ./single_ended_cascode_current_mirror7565_0.17_6.0_0.11_7.0_0.13_12.0_0.24_3.0_0.17_8.0_0.16_17.0_0.25_5.0_0.11_16.0_0.43_0.3_0.14.raw/dcswp-007_dcOp.dc
        ...
Important parameter values:
    reltol = 1e-03
    abstol(V) = 1 uV
    abstol(I) = 1 pA
    temp = 27 C
    tnom = 27 C
    tempeffects = all
    gmindc = 1 pS

Notice from spectre at dc_offset = -493e-03 during DC analysis
        `dcswp-007_dcOp', during Sweep analysis `dcswp'.
    GminDC = 1 pS is large enough to noticeably affect the DC solution.
        dV(MM5:int_di) = 25.5132 mV
        Use the `gmin_check' option to eliminate or expand this report.

writing solution to
        /homes/natelgrw/Documents/titan_foundation_model/results/designs_single_ended_cascode_current_mirror7565/single_ended_cascode_current_mirror7565_0.17_6.0_0.11_7.0_0.13_12.0_0.24_3.0_0.17_8.0_0.16_17.0_0.25_5.0_0.11_16.0_0.43_0.3_0.14/spectre.dc

Maximum value achieved for any signal of each quantity: 
V: V(vdd!) = 1 V
I: I(V0:p) = 419.9 nA
Convergence achieved in 31 iterations.
DC simulation time: CPU = 4.416 ms, elapsed = 77.842 ms.
Total time required for dc analysis `dcswp-007_dcOp': CPU = 4.458 ms, elapsed =
        77.883 ms, util. = 5.72%.
Time accumulated: CPU = 318.503 ms, elapsed = 1.94335 s.
Peak resident memory used = 208 Mbytes.


++++++++++++++++++++++++++++++++++++
dcswp: dc_offset = -492e-03 (800 m%)
++++++++++++++++++++++++++++++++++++
Time for dcswp itNum=8: CPU = 95 us, elapsed = 96.0827 us.
Time accumulated: CPU = 318.66 ms, elapsed = 1.94351 s.
Peak resident memory used = 208 Mbytes.


****************************
DC Analysis `dcswp-008_dcOp'
****************************

Opening the PSF file
        ./single_ended_cascode_current_mirror7565_0.17_6.0_0.11_7.0_0.13_12.0_0.24_3.0_0.17_8.0_0.16_17.0_0.25_5.0_0.11_16.0_0.43_0.3_0.14.raw/dcswp-008_dcOp.dc
        ...
Important parameter values:
    reltol = 1e-03
    abstol(V) = 1 uV
    abstol(I) = 1 pA
    temp = 27 C
    tnom = 27 C
    tempeffects = all
    gmindc = 1 pS

Notice from spectre at dc_offset = -492e-03 during DC analysis
        `dcswp-008_dcOp', during Sweep analysis `dcswp'.
    GminDC = 1 pS is large enough to noticeably affect the DC solution.
        dV(MM5:int_di) = 25.5132 mV
        Use the `gmin_check' option to eliminate or expand this report.

writing solution to
        /homes/natelgrw/Documents/titan_foundation_model/results/designs_single_ended_cascode_current_mirror7565/single_ended_cascode_current_mirror7565_0.17_6.0_0.11_7.0_0.13_12.0_0.24_3.0_0.17_8.0_0.16_17.0_0.25_5.0_0.11_16.0_0.43_0.3_0.14/spectre.dc

Maximum value achieved for any signal of each quantity: 
V: V(vdd!) = 1 V
I: I(V0:p) = 419.5 nA
Convergence achieved in 31 iterations.
DC simulation time: CPU = 4.732 ms, elapsed = 35.5201 ms.
Total time required for dc analysis `dcswp-008_dcOp': CPU = 4.798 ms, elapsed =
        35.5849 ms, util. = 13.5%.
Time accumulated: CPU = 323.908 ms, elapsed = 2.01183 s.
Peak resident memory used = 208 Mbytes.


++++++++++++++++++++++++++++++++++++
dcswp: dc_offset = -491e-03 (900 m%)
++++++++++++++++++++++++++++++++++++
Time for dcswp itNum=9: CPU = 173 us, elapsed = 173.092 us.
Time accumulated: CPU = 324.149 ms, elapsed = 2.01207 s.
Peak resident memory used = 208 Mbytes.


****************************
DC Analysis `dcswp-009_dcOp'
****************************

Opening the PSF file
        ./single_ended_cascode_current_mirror7565_0.17_6.0_0.11_7.0_0.13_12.0_0.24_3.0_0.17_8.0_0.16_17.0_0.25_5.0_0.11_16.0_0.43_0.3_0.14.raw/dcswp-009_dcOp.dc
        ...
Important parameter values:
    reltol = 1e-03
    abstol(V) = 1 uV
    abstol(I) = 1 pA
    temp = 27 C
    tnom = 27 C
    tempeffects = all
    gmindc = 1 pS

Notice from spectre at dc_offset = -491e-03 during DC analysis
        `dcswp-009_dcOp', during Sweep analysis `dcswp'.
    GminDC = 1 pS is large enough to noticeably affect the DC solution.
        dV(MM5:int_di) = 25.5132 mV
        Use the `gmin_check' option to eliminate or expand this report.

writing solution to
        /homes/natelgrw/Documents/titan_foundation_model/results/designs_single_ended_cascode_current_mirror7565/single_ended_cascode_current_mirror7565_0.17_6.0_0.11_7.0_0.13_12.0_0.24_3.0_0.17_8.0_0.16_17.0_0.25_5.0_0.11_16.0_0.43_0.3_0.14/spectre.dc

Maximum value achieved for any signal of each quantity: 
V: V(vdd!) = 1 V
I: I(V0:p) = 419.1 nA
Convergence achieved in 31 iterations.
DC simulation time: CPU = 5.028 ms, elapsed = 19.619 ms.
Total time required for dc analysis `dcswp-009_dcOp': CPU = 5.085 ms, elapsed =
        19.6731 ms, util. = 25.8%.
Time accumulated: CPU = 329.73 ms, elapsed = 2.03657 s.
Peak resident memory used = 208 Mbytes.


+++++++++++++++++++++++++++++++++
dcswp: dc_offset = -490e-03 (1 %)
+++++++++++++++++++++++++++++++++
Time for dcswp itNum=10: CPU = 191 us, elapsed = 199.08 us.
Time accumulated: CPU = 330.039 ms, elapsed = 2.03689 s.
Peak resident memory used = 208 Mbytes.


****************************
DC Analysis `dcswp-010_dcOp'
****************************

Opening the PSF file
        ./single_ended_cascode_current_mirror7565_0.17_6.0_0.11_7.0_0.13_12.0_0.24_3.0_0.17_8.0_0.16_17.0_0.25_5.0_0.11_16.0_0.43_0.3_0.14.raw/dcswp-010_dcOp.dc
        ...
Important parameter values:
    reltol = 1e-03
    abstol(V) = 1 uV
    abstol(I) = 1 pA
    temp = 27 C
    tnom = 27 C
    tempeffects = all
    gmindc = 1 pS

Notice from spectre at dc_offset = -490e-03 during DC analysis
        `dcswp-010_dcOp', during Sweep analysis `dcswp'.
    GminDC = 1 pS is large enough to noticeably affect the DC solution.
        dV(MM5:int_di) = 25.5132 mV
        Use the `gmin_check' option to eliminate or expand this report.

writing solution to
        /homes/natelgrw/Documents/titan_foundation_model/results/designs_single_ended_cascode_current_mirror7565/single_ended_cascode_current_mirror7565_0.17_6.0_0.11_7.0_0.13_12.0_0.24_3.0_0.17_8.0_0.16_17.0_0.25_5.0_0.11_16.0_0.43_0.3_0.14/spectre.dc

Maximum value achieved for any signal of each quantity: 
V: V(vdd!) = 1 V
I: I(V0:p) = 418.6 nA
Convergence achieved in 31 iterations.
DC simulation time: CPU = 4.332 ms, elapsed = 44.106 ms.
Total time required for dc analysis `dcswp-010_dcOp': CPU = 4.412 ms, elapsed =
        44.184 ms, util. = 9.99%.
Time accumulated: CPU = 334.911 ms, elapsed = 2.09966 s.
Peak resident memory used = 208 Mbytes.


+++++++++++++++++++++++++++++++++++
dcswp: dc_offset = -489e-03 (1.1 %)
+++++++++++++++++++++++++++++++++++
Time for dcswp itNum=11: CPU = 118 us, elapsed = 123.024 us.
Time accumulated: CPU = 335.104 ms, elapsed = 2.09986 s.
Peak resident memory used = 208 Mbytes.


****************************
DC Analysis `dcswp-011_dcOp'
****************************

Opening the PSF file
        ./single_ended_cascode_current_mirror7565_0.17_6.0_0.11_7.0_0.13_12.0_0.24_3.0_0.17_8.0_0.16_17.0_0.25_5.0_0.11_16.0_0.43_0.3_0.14.raw/dcswp-011_dcOp.dc
        ...
Important parameter values:
    reltol = 1e-03
    abstol(V) = 1 uV
    abstol(I) = 1 pA
    temp = 27 C
    tnom = 27 C
    tempeffects = all
    gmindc = 1 pS

Notice from spectre at dc_offset = -489e-03 during DC analysis
        `dcswp-011_dcOp', during Sweep analysis `dcswp'.
    GminDC = 1 pS is large enough to noticeably affect the DC solution.
        dV(MM5:int_di) = 25.5132 mV
        Use the `gmin_check' option to eliminate or expand this report.

writing solution to
        /homes/natelgrw/Documents/titan_foundation_model/results/designs_single_ended_cascode_current_mirror7565/single_ended_cascode_current_mirror7565_0.17_6.0_0.11_7.0_0.13_12.0_0.24_3.0_0.17_8.0_0.16_17.0_0.25_5.0_0.11_16.0_0.43_0.3_0.14/spectre.dc

Maximum value achieved for any signal of each quantity: 
V: V(vdd!) = 1 V
I: I(V0:p) = 418.2 nA
Convergence achieved in 29 iterations.
DC simulation time: CPU = 4.261 ms, elapsed = 18.9841 ms.
Total time required for dc analysis `dcswp-011_dcOp': CPU = 4.313 ms, elapsed =
        19.0361 ms, util. = 22.7%.
Time accumulated: CPU = 340.003 ms, elapsed = 2.19353 s.
Peak resident memory used = 208 Mbytes.


+++++++++++++++++++++++++++++++++++
dcswp: dc_offset = -488e-03 (1.2 %)
+++++++++++++++++++++++++++++++++++
Time for dcswp itNum=12: CPU = 281 us, elapsed = 287.056 us.
Time accumulated: CPU = 340.394 ms, elapsed = 2.19392 s.
Peak resident memory used = 208 Mbytes.


****************************
DC Analysis `dcswp-012_dcOp'
****************************

Opening the PSF file
        ./single_ended_cascode_current_mirror7565_0.17_6.0_0.11_7.0_0.13_12.0_0.24_3.0_0.17_8.0_0.16_17.0_0.25_5.0_0.11_16.0_0.43_0.3_0.14.raw/dcswp-012_dcOp.dc
        ...
Important parameter values:
    reltol = 1e-03
    abstol(V) = 1 uV
    abstol(I) = 1 pA
    temp = 27 C
    tnom = 27 C
    tempeffects = all
    gmindc = 1 pS

Notice from spectre at dc_offset = -488e-03 during DC analysis
        `dcswp-012_dcOp', during Sweep analysis `dcswp'.
    GminDC = 1 pS is large enough to noticeably affect the DC solution.
        dV(MM5:int_di) = 25.5132 mV
        Use the `gmin_check' option to eliminate or expand this report.

writing solution to
        /homes/natelgrw/Documents/titan_foundation_model/results/designs_single_ended_cascode_current_mirror7565/single_ended_cascode_current_mirror7565_0.17_6.0_0.11_7.0_0.13_12.0_0.24_3.0_0.17_8.0_0.16_17.0_0.25_5.0_0.11_16.0_0.43_0.3_0.14/spectre.dc

Maximum value achieved for any signal of each quantity: 
V: V(vdd!) = 1 V
I: I(V0:p) = 417.8 nA
Convergence achieved in 28 iterations.
DC simulation time: CPU = 5.544 ms, elapsed = 40.7159 ms.
Total time required for dc analysis `dcswp-012_dcOp': CPU = 5.612 ms, elapsed =
        40.7832 ms, util. = 13.8%.
Time accumulated: CPU = 346.516 ms, elapsed = 2.23911 s.
Peak resident memory used = 208 Mbytes.


+++++++++++++++++++++++++++++++++++
dcswp: dc_offset = -487e-03 (1.3 %)
+++++++++++++++++++++++++++++++++++
Time for dcswp itNum=13: CPU = 235 us, elapsed = 251.055 us.
Time accumulated: CPU = 346.821 ms, elapsed = 2.23943 s.
Peak resident memory used = 208 Mbytes.


****************************
DC Analysis `dcswp-013_dcOp'
****************************

Opening the PSF file
        ./single_ended_cascode_current_mirror7565_0.17_6.0_0.11_7.0_0.13_12.0_0.24_3.0_0.17_8.0_0.16_17.0_0.25_5.0_0.11_16.0_0.43_0.3_0.14.raw/dcswp-013_dcOp.dc
        ...
Important parameter values:
    reltol = 1e-03
    abstol(V) = 1 uV
    abstol(I) = 1 pA
    temp = 27 C
    tnom = 27 C
    tempeffects = all
    gmindc = 1 pS

Notice from spectre at dc_offset = -487e-03 during DC analysis
        `dcswp-013_dcOp', during Sweep analysis `dcswp'.
    GminDC = 1 pS is large enough to noticeably affect the DC solution.
        dV(MM5:int_di) = 25.5125 mV
        Use the `gmin_check' option to eliminate or expand this report.

writing solution to
        /homes/natelgrw/Documents/titan_foundation_model/results/designs_single_ended_cascode_current_mirror7565/single_ended_cascode_current_mirror7565_0.17_6.0_0.11_7.0_0.13_12.0_0.24_3.0_0.17_8.0_0.16_17.0_0.25_5.0_0.11_16.0_0.43_0.3_0.14/spectre.dc

Maximum value achieved for any signal of each quantity: 
V: V(vdd!) = 1 V
I: I(V0:p) = 417.4 nA
Convergence achieved in 27 iterations.
DC simulation time: CPU = 5.814 ms, elapsed = 12.9879 ms.
Total time required for dc analysis `dcswp-013_dcOp': CPU = 5.871 ms, elapsed =
        13.042 ms, util. = 45%.
Time accumulated: CPU = 353.186 ms, elapsed = 2.27205 s.
Peak resident memory used = 208 Mbytes.


+++++++++++++++++++++++++++++++++++
dcswp: dc_offset = -486e-03 (1.4 %)
+++++++++++++++++++++++++++++++++++
Time for dcswp itNum=14: CPU = 258 us, elapsed = 257.969 us.
Time accumulated: CPU = 353.54 ms, elapsed = 2.27238 s.
Peak resident memory used = 208 Mbytes.


****************************
DC Analysis `dcswp-014_dcOp'
****************************

Opening the PSF file
        ./single_ended_cascode_current_mirror7565_0.17_6.0_0.11_7.0_0.13_12.0_0.24_3.0_0.17_8.0_0.16_17.0_0.25_5.0_0.11_16.0_0.43_0.3_0.14.raw/dcswp-014_dcOp.dc
        ...
Important parameter values:
    reltol = 1e-03
    abstol(V) = 1 uV
    abstol(I) = 1 pA
    temp = 27 C
    tnom = 27 C
    tempeffects = all
    gmindc = 1 pS

Notice from spectre at dc_offset = -486e-03 during DC analysis
        `dcswp-014_dcOp', during Sweep analysis `dcswp'.
    GminDC = 1 pS is large enough to noticeably affect the DC solution.
        dV(MM5:int_di) = 25.5105 mV
        Use the `gmin_check' option to eliminate or expand this report.

writing solution to
        /homes/natelgrw/Documents/titan_foundation_model/results/designs_single_ended_cascode_current_mirror7565/single_ended_cascode_current_mirror7565_0.17_6.0_0.11_7.0_0.13_12.0_0.24_3.0_0.17_8.0_0.16_17.0_0.25_5.0_0.11_16.0_0.43_0.3_0.14/spectre.dc

Maximum value achieved for any signal of each quantity: 
V: V(vdd!) = 1 V
I: I(V0:p) = 416.9 nA
Convergence achieved in 26 iterations.
DC simulation time: CPU = 6.347 ms, elapsed = 29.5849 ms.
Total time required for dc analysis `dcswp-014_dcOp': CPU = 6.538 ms, elapsed =
        29.7761 ms, util. = 22%.
Time accumulated: CPU = 360.582 ms, elapsed = 2.3441 s.
Peak resident memory used = 208 Mbytes.


+++++++++++++++++++++++++++++++++++
dcswp: dc_offset = -485e-03 (1.5 %)
+++++++++++++++++++++++++++++++++++
Time for dcswp itNum=15: CPU = 290 us, elapsed = 291.109 us.
Time accumulated: CPU = 360.978 ms, elapsed = 2.3445 s.
Peak resident memory used = 208 Mbytes.


****************************
DC Analysis `dcswp-015_dcOp'
****************************

Opening the PSF file
        ./single_ended_cascode_current_mirror7565_0.17_6.0_0.11_7.0_0.13_12.0_0.24_3.0_0.17_8.0_0.16_17.0_0.25_5.0_0.11_16.0_0.43_0.3_0.14.raw/dcswp-015_dcOp.dc
        ...
Important parameter values:
    reltol = 1e-03
    abstol(V) = 1 uV
    abstol(I) = 1 pA
    temp = 27 C
    tnom = 27 C
    tempeffects = all
    gmindc = 1 pS

Notice from spectre at dc_offset = -485e-03 during DC analysis
        `dcswp-015_dcOp', during Sweep analysis `dcswp'.
    GminDC = 1 pS is large enough to noticeably affect the DC solution.
        dV(MM5:int_di) = 25.5083 mV
        Use the `gmin_check' option to eliminate or expand this report.

writing solution to
        /homes/natelgrw/Documents/titan_foundation_model/results/designs_single_ended_cascode_current_mirror7565/single_ended_cascode_current_mirror7565_0.17_6.0_0.11_7.0_0.13_12.0_0.24_3.0_0.17_8.0_0.16_17.0_0.25_5.0_0.11_16.0_0.43_0.3_0.14/spectre.dc

Maximum value achieved for any signal of each quantity: 
V: V(vdd!) = 1 V
I: I(V0:p) = 416.5 nA
Convergence achieved in 24 iterations.
DC simulation time: CPU = 4.903 ms, elapsed = 21.481 ms.
Total time required for dc analysis `dcswp-015_dcOp': CPU = 4.967 ms, elapsed =
        21.565 ms, util. = 23%.
Time accumulated: CPU = 366.397 ms, elapsed = 2.37095 s.
Peak resident memory used = 208 Mbytes.


+++++++++++++++++++++++++++++++++++
dcswp: dc_offset = -484e-03 (1.6 %)
+++++++++++++++++++++++++++++++++++
Time for dcswp itNum=16: CPU = 238 us, elapsed = 238.18 us.
Time accumulated: CPU = 366.753 ms, elapsed = 2.37131 s.
Peak resident memory used = 208 Mbytes.


****************************
DC Analysis `dcswp-016_dcOp'
****************************

Opening the PSF file
        ./single_ended_cascode_current_mirror7565_0.17_6.0_0.11_7.0_0.13_12.0_0.24_3.0_0.17_8.0_0.16_17.0_0.25_5.0_0.11_16.0_0.43_0.3_0.14.raw/dcswp-016_dcOp.dc
        ...
Important parameter values:
    reltol = 1e-03
    abstol(V) = 1 uV
    abstol(I) = 1 pA
    temp = 27 C
    tnom = 27 C
    tempeffects = all
    gmindc = 1 pS

Notice from spectre at dc_offset = -484e-03 during DC analysis
        `dcswp-016_dcOp', during Sweep analysis `dcswp'.
    GminDC = 1 pS is large enough to noticeably affect the DC solution.
        dV(MM5:int_di) = 25.5061 mV
        Use the `gmin_check' option to eliminate or expand this report.

writing solution to
        /homes/natelgrw/Documents/titan_foundation_model/results/designs_single_ended_cascode_current_mirror7565/single_ended_cascode_current_mirror7565_0.17_6.0_0.11_7.0_0.13_12.0_0.24_3.0_0.17_8.0_0.16_17.0_0.25_5.0_0.11_16.0_0.43_0.3_0.14/spectre.dc

Maximum value achieved for any signal of each quantity: 
V: V(vdd!) = 1 V
I: I(V0:p) = 416.1 nA
Convergence achieved in 22 iterations.
DC simulation time: CPU = 4.243 ms, elapsed = 39.3989 ms.
Total time required for dc analysis `dcswp-016_dcOp': CPU = 4.294 ms, elapsed =
        39.4492 ms, util. = 10.9%.
Time accumulated: CPU = 371.43 ms, elapsed = 2.41502 s.
Peak resident memory used = 208 Mbytes.


+++++++++++++++++++++++++++++++++++
dcswp: dc_offset = -483e-03 (1.7 %)
+++++++++++++++++++++++++++++++++++
Time for dcswp itNum=17: CPU = 185 us, elapsed = 191.927 us.
Time accumulated: CPU = 371.693 ms, elapsed = 2.41529 s.
Peak resident memory used = 208 Mbytes.


****************************
DC Analysis `dcswp-017_dcOp'
****************************

Opening the PSF file
        ./single_ended_cascode_current_mirror7565_0.17_6.0_0.11_7.0_0.13_12.0_0.24_3.0_0.17_8.0_0.16_17.0_0.25_5.0_0.11_16.0_0.43_0.3_0.14.raw/dcswp-017_dcOp.dc
        ...
Important parameter values:
    reltol = 1e-03
    abstol(V) = 1 uV
    abstol(I) = 1 pA
    temp = 27 C
    tnom = 27 C
    tempeffects = all
    gmindc = 1 pS

Notice from spectre at dc_offset = -483e-03 during DC analysis
        `dcswp-017_dcOp', during Sweep analysis `dcswp'.
    GminDC = 1 pS is large enough to noticeably affect the DC solution.
        dV(MM5:int_di) = 25.4335 mV
        Use the `gmin_check' option to eliminate or expand this report.

writing solution to
        /homes/natelgrw/Documents/titan_foundation_model/results/designs_single_ended_cascode_current_mirror7565/single_ended_cascode_current_mirror7565_0.17_6.0_0.11_7.0_0.13_12.0_0.24_3.0_0.17_8.0_0.16_17.0_0.25_5.0_0.11_16.0_0.43_0.3_0.14/spectre.dc

Maximum value achieved for any signal of each quantity: 
V: V(vdd!) = 1 V
I: I(V0:p) = 415.7 nA
Convergence achieved in 25 iterations.
DC simulation time: CPU = 4.209 ms, elapsed = 17.633 ms.
Total time required for dc analysis `dcswp-017_dcOp': CPU = 4.26 ms, elapsed =
        17.683 ms, util. = 24.1%.
Time accumulated: CPU = 376.43 ms, elapsed = 2.45025 s.
Peak resident memory used = 208 Mbytes.


+++++++++++++++++++++++++++++++++++
dcswp: dc_offset = -482e-03 (1.8 %)
+++++++++++++++++++++++++++++++++++
Time for dcswp itNum=18: CPU = 112 us, elapsed = 112.057 us.
Time accumulated: CPU = 376.602 ms, elapsed = 2.45042 s.
Peak resident memory used = 208 Mbytes.


****************************
DC Analysis `dcswp-018_dcOp'
****************************

Opening the PSF file
        ./single_ended_cascode_current_mirror7565_0.17_6.0_0.11_7.0_0.13_12.0_0.24_3.0_0.17_8.0_0.16_17.0_0.25_5.0_0.11_16.0_0.43_0.3_0.14.raw/dcswp-018_dcOp.dc
        ...
Important parameter values:
    reltol = 1e-03
    abstol(V) = 1 uV
    abstol(I) = 1 pA
    temp = 27 C
    tnom = 27 C
    tempeffects = all
    gmindc = 1 pS

Notice from spectre at dc_offset = -482e-03 during DC analysis
        `dcswp-018_dcOp', during Sweep analysis `dcswp'.
    GminDC = 1 pS is large enough to noticeably affect the DC solution.
        dV(MM5:int_di) = 25.4998 mV
        Use the `gmin_check' option to eliminate or expand this report.

writing solution to
        /homes/natelgrw/Documents/titan_foundation_model/results/designs_single_ended_cascode_current_mirror7565/single_ended_cascode_current_mirror7565_0.17_6.0_0.11_7.0_0.13_12.0_0.24_3.0_0.17_8.0_0.16_17.0_0.25_5.0_0.11_16.0_0.43_0.3_0.14/spectre.dc

Maximum value achieved for any signal of each quantity: 
V: V(vdd!) = 1 V
I: I(V0:p) = 415.2 nA
Convergence achieved in 22 iterations.
DC simulation time: CPU = 3.734 ms, elapsed = 22.2111 ms.
Total time required for dc analysis `dcswp-018_dcOp': CPU = 3.781 ms, elapsed =
        22.258 ms, util. = 17%.
Time accumulated: CPU = 380.888 ms, elapsed = 2.49184 s.
Peak resident memory used = 208 Mbytes.


+++++++++++++++++++++++++++++++++++
dcswp: dc_offset = -481e-03 (1.9 %)
+++++++++++++++++++++++++++++++++++
Time for dcswp itNum=19: CPU = 110 us, elapsed = 110.865 us.
Time accumulated: CPU = 381.06 ms, elapsed = 2.49201 s.
Peak resident memory used = 208 Mbytes.


****************************
DC Analysis `dcswp-019_dcOp'
****************************

Opening the PSF file
        ./single_ended_cascode_current_mirror7565_0.17_6.0_0.11_7.0_0.13_12.0_0.24_3.0_0.17_8.0_0.16_17.0_0.25_5.0_0.11_16.0_0.43_0.3_0.14.raw/dcswp-019_dcOp.dc
        ...
Important parameter values:
    reltol = 1e-03
    abstol(V) = 1 uV
    abstol(I) = 1 pA
    temp = 27 C
    tnom = 27 C
    tempeffects = all
    gmindc = 1 pS

Notice from spectre at dc_offset = -481e-03 during DC analysis
        `dcswp-019_dcOp', during Sweep analysis `dcswp'.
    GminDC = 1 pS is large enough to noticeably affect the DC solution.
        dV(MM5:int_di) = 25.4988 mV
        Use the `gmin_check' option to eliminate or expand this report.

writing solution to
        /homes/natelgrw/Documents/titan_foundation_model/results/designs_single_ended_cascode_current_mirror7565/single_ended_cascode_current_mirror7565_0.17_6.0_0.11_7.0_0.13_12.0_0.24_3.0_0.17_8.0_0.16_17.0_0.25_5.0_0.11_16.0_0.43_0.3_0.14/spectre.dc

Maximum value achieved for any signal of each quantity: 
V: V(vdd!) = 1 V
I: I(V0:p) = 414.8 nA
Convergence achieved in 23 iterations.
DC simulation time: CPU = 3.756 ms, elapsed = 51.2271 ms.
Total time required for dc analysis `dcswp-019_dcOp': CPU = 3.821 ms, elapsed =
        51.2898 ms, util. = 7.45%.
Time accumulated: CPU = 385.436 ms, elapsed = 2.56059 s.
Peak resident memory used = 208 Mbytes.


+++++++++++++++++++++++++++++++++
dcswp: dc_offset = -480e-03 (2 %)
+++++++++++++++++++++++++++++++++
Time for dcswp itNum=20: CPU = 150 us, elapsed = 157.118 us.
Time accumulated: CPU = 385.647 ms, elapsed = 2.5608 s.
Peak resident memory used = 208 Mbytes.


****************************
DC Analysis `dcswp-020_dcOp'
****************************

Opening the PSF file
        ./single_ended_cascode_current_mirror7565_0.17_6.0_0.11_7.0_0.13_12.0_0.24_3.0_0.17_8.0_0.16_17.0_0.25_5.0_0.11_16.0_0.43_0.3_0.14.raw/dcswp-020_dcOp.dc
        ...
Important parameter values:
    reltol = 1e-03
    abstol(V) = 1 uV
    abstol(I) = 1 pA
    temp = 27 C
    tnom = 27 C
    tempeffects = all
    gmindc = 1 pS

Notice from spectre at dc_offset = -480e-03 during DC analysis
        `dcswp-020_dcOp', during Sweep analysis `dcswp'.
    GminDC = 1 pS is large enough to noticeably affect the DC solution.
        dV(MM5:int_di) = 25.4962 mV
        Use the `gmin_check' option to eliminate or expand this report.

writing solution to
        /homes/natelgrw/Documents/titan_foundation_model/results/designs_single_ended_cascode_current_mirror7565/single_ended_cascode_current_mirror7565_0.17_6.0_0.11_7.0_0.13_12.0_0.24_3.0_0.17_8.0_0.16_17.0_0.25_5.0_0.11_16.0_0.43_0.3_0.14/spectre.dc

Maximum value achieved for any signal of each quantity: 
V: V(vdd!) = 1 V
I: I(V0:p) = 414.4 nA
Convergence achieved in 24 iterations.
DC simulation time: CPU = 4.027 ms, elapsed = 40.776 ms.
Total time required for dc analysis `dcswp-020_dcOp': CPU = 4.094 ms, elapsed =
        40.8411 ms, util. = 10%.
Time accumulated: CPU = 390.184 ms, elapsed = 2.60596 s.
Peak resident memory used = 208 Mbytes.


+++++++++++++++++++++++++++++++++++
dcswp: dc_offset = -479e-03 (2.1 %)
+++++++++++++++++++++++++++++++++++
Time for dcswp itNum=21: CPU = 163 us, elapsed = 162.84 us.
Time accumulated: CPU = 390.408 ms, elapsed = 2.60619 s.
Peak resident memory used = 208 Mbytes.


****************************
DC Analysis `dcswp-021_dcOp'
****************************

Opening the PSF file
        ./single_ended_cascode_current_mirror7565_0.17_6.0_0.11_7.0_0.13_12.0_0.24_3.0_0.17_8.0_0.16_17.0_0.25_5.0_0.11_16.0_0.43_0.3_0.14.raw/dcswp-021_dcOp.dc
        ...
Important parameter values:
    reltol = 1e-03
    abstol(V) = 1 uV
    abstol(I) = 1 pA
    temp = 27 C
    tnom = 27 C
    tempeffects = all
    gmindc = 1 pS

Notice from spectre at dc_offset = -479e-03 during DC analysis
        `dcswp-021_dcOp', during Sweep analysis `dcswp'.
    GminDC = 1 pS is large enough to noticeably affect the DC solution.
        dV(MM5:int_di) = 25.4935 mV
        Use the `gmin_check' option to eliminate or expand this report.

writing solution to
        /homes/natelgrw/Documents/titan_foundation_model/results/designs_single_ended_cascode_current_mirror7565/single_ended_cascode_current_mirror7565_0.17_6.0_0.11_7.0_0.13_12.0_0.24_3.0_0.17_8.0_0.16_17.0_0.25_5.0_0.11_16.0_0.43_0.3_0.14/spectre.dc

Maximum value achieved for any signal of each quantity: 
V: V(vdd!) = 1 V
I: I(V0:p) = 414 nA
Convergence achieved in 24 iterations.
DC simulation time: CPU = 4.039 ms, elapsed = 11.5631 ms.
Total time required for dc analysis `dcswp-021_dcOp': CPU = 4.083 ms, elapsed =
        11.6069 ms, util. = 35.2%.
Time accumulated: CPU = 394.973 ms, elapsed = 2.66892 s.
Peak resident memory used = 208 Mbytes.


+++++++++++++++++++++++++++++++++++
dcswp: dc_offset = -478e-03 (2.2 %)
+++++++++++++++++++++++++++++++++++
Time for dcswp itNum=22: CPU = 140 us, elapsed = 139.952 us.
Time accumulated: CPU = 395.175 ms, elapsed = 2.66913 s.
Peak resident memory used = 208 Mbytes.


****************************
DC Analysis `dcswp-022_dcOp'
****************************

Opening the PSF file
        ./single_ended_cascode_current_mirror7565_0.17_6.0_0.11_7.0_0.13_12.0_0.24_3.0_0.17_8.0_0.16_17.0_0.25_5.0_0.11_16.0_0.43_0.3_0.14.raw/dcswp-022_dcOp.dc
        ...
Important parameter values:
    reltol = 1e-03
    abstol(V) = 1 uV
    abstol(I) = 1 pA
    temp = 27 C
    tnom = 27 C
    tempeffects = all
    gmindc = 1 pS

Notice from spectre at dc_offset = -478e-03 during DC analysis
        `dcswp-022_dcOp', during Sweep analysis `dcswp'.
    GminDC = 1 pS is large enough to noticeably affect the DC solution.
        dV(MM5:int_di) = 25.4907 mV
        Use the `gmin_check' option to eliminate or expand this report.

writing solution to
        /homes/natelgrw/Documents/titan_foundation_model/results/designs_single_ended_cascode_current_mirror7565/single_ended_cascode_current_mirror7565_0.17_6.0_0.11_7.0_0.13_12.0_0.24_3.0_0.17_8.0_0.16_17.0_0.25_5.0_0.11_16.0_0.43_0.3_0.14/spectre.dc

Maximum value achieved for any signal of each quantity: 
V: V(vdd!) = 1 V
I: I(V0:p) = 413.5 nA
Convergence achieved in 24 iterations.
DC simulation time: CPU = 4.452 ms, elapsed = 297.068 ms.
Total time required for dc analysis `dcswp-022_dcOp': CPU = 4.505 ms, elapsed =
        297.119 ms, util. = 1.52%.
Time accumulated: CPU = 400.135 ms, elapsed = 2.9706 s.
Peak resident memory used = 208 Mbytes.


+++++++++++++++++++++++++++++++++++
dcswp: dc_offset = -477e-03 (2.3 %)
+++++++++++++++++++++++++++++++++++
Time for dcswp itNum=23: CPU = 275 us, elapsed = 286.102 us.
Time accumulated: CPU = 400.478 ms, elapsed = 2.97096 s.
Peak resident memory used = 208 Mbytes.


****************************
DC Analysis `dcswp-023_dcOp'
****************************

Opening the PSF file
        ./single_ended_cascode_current_mirror7565_0.17_6.0_0.11_7.0_0.13_12.0_0.24_3.0_0.17_8.0_0.16_17.0_0.25_5.0_0.11_16.0_0.43_0.3_0.14.raw/dcswp-023_dcOp.dc
        ...
Important parameter values:
    reltol = 1e-03
    abstol(V) = 1 uV
    abstol(I) = 1 pA
    temp = 27 C
    tnom = 27 C
    tempeffects = all
    gmindc = 1 pS

Notice from spectre at dc_offset = -477e-03 during DC analysis
        `dcswp-023_dcOp', during Sweep analysis `dcswp'.
    GminDC = 1 pS is large enough to noticeably affect the DC solution.
        dV(MM5:int_di) = 25.4878 mV
        Use the `gmin_check' option to eliminate or expand this report.

writing solution to
        /homes/natelgrw/Documents/titan_foundation_model/results/designs_single_ended_cascode_current_mirror7565/single_ended_cascode_current_mirror7565_0.17_6.0_0.11_7.0_0.13_12.0_0.24_3.0_0.17_8.0_0.16_17.0_0.25_5.0_0.11_16.0_0.43_0.3_0.14/spectre.dc

Maximum value achieved for any signal of each quantity: 
V: V(vdd!) = 1 V
I: I(V0:p) = 413.1 nA
Convergence achieved in 24 iterations.
DC simulation time: CPU = 4.622 ms, elapsed = 81.5859 ms.
Total time required for dc analysis `dcswp-023_dcOp': CPU = 4.687 ms, elapsed =
        81.6519 ms, util. = 5.74%.
Time accumulated: CPU = 405.857 ms, elapsed = 3.09939 s.
Peak resident memory used = 208 Mbytes.


+++++++++++++++++++++++++++++++++++
dcswp: dc_offset = -476e-03 (2.4 %)
+++++++++++++++++++++++++++++++++++
Time for dcswp itNum=24: CPU = 208 us, elapsed = 208.855 us.
Time accumulated: CPU = 406.192 ms, elapsed = 3.09972 s.
Peak resident memory used = 208 Mbytes.


****************************
DC Analysis `dcswp-024_dcOp'
****************************

Opening the PSF file
        ./single_ended_cascode_current_mirror7565_0.17_6.0_0.11_7.0_0.13_12.0_0.24_3.0_0.17_8.0_0.16_17.0_0.25_5.0_0.11_16.0_0.43_0.3_0.14.raw/dcswp-024_dcOp.dc
        ...
Important parameter values:
    reltol = 1e-03
    abstol(V) = 1 uV
    abstol(I) = 1 pA
    temp = 27 C
    tnom = 27 C
    tempeffects = all
    gmindc = 1 pS

Notice from spectre at dc_offset = -476e-03 during DC analysis
        `dcswp-024_dcOp', during Sweep analysis `dcswp'.
    GminDC = 1 pS is large enough to noticeably affect the DC solution.
        dV(MM5:int_di) = 25.4721 mV
        Use the `gmin_check' option to eliminate or expand this report.

writing solution to
        /homes/natelgrw/Documents/titan_foundation_model/results/designs_single_ended_cascode_current_mirror7565/single_ended_cascode_current_mirror7565_0.17_6.0_0.11_7.0_0.13_12.0_0.24_3.0_0.17_8.0_0.16_17.0_0.25_5.0_0.11_16.0_0.43_0.3_0.14/spectre.dc

Maximum value achieved for any signal of each quantity: 
V: V(vdd!) = 1 V
I: I(V0:p) = 412.7 nA
Convergence achieved in 32 iterations.
DC simulation time: CPU = 5.207 ms, elapsed = 13.005 ms.
Total time required for dc analysis `dcswp-024_dcOp': CPU = 5.278 ms, elapsed =
        13.073 ms, util. = 40.4%.
Time accumulated: CPU = 412.058 ms, elapsed = 3.14029 s.
Peak resident memory used = 208 Mbytes.


+++++++++++++++++++++++++++++++++++
dcswp: dc_offset = -475e-03 (2.5 %)
+++++++++++++++++++++++++++++++++++
Time for dcswp itNum=25: CPU = 242 us, elapsed = 243.187 us.
Time accumulated: CPU = 412.386 ms, elapsed = 3.14062 s.
Peak resident memory used = 208 Mbytes.


****************************
DC Analysis `dcswp-025_dcOp'
****************************

Opening the PSF file
        ./single_ended_cascode_current_mirror7565_0.17_6.0_0.11_7.0_0.13_12.0_0.24_3.0_0.17_8.0_0.16_17.0_0.25_5.0_0.11_16.0_0.43_0.3_0.14.raw/dcswp-025_dcOp.dc
        ...
Important parameter values:
    reltol = 1e-03
    abstol(V) = 1 uV
    abstol(I) = 1 pA
    temp = 27 C
    tnom = 27 C
    tempeffects = all
    gmindc = 1 pS

Notice from spectre at dc_offset = -475e-03 during DC analysis
        `dcswp-025_dcOp', during Sweep analysis `dcswp'.
    GminDC = 1 pS is large enough to noticeably affect the DC solution.
        dV(MM5:int_di) = 25.4728 mV
        Use the `gmin_check' option to eliminate or expand this report.

writing solution to
        /homes/natelgrw/Documents/titan_foundation_model/results/designs_single_ended_cascode_current_mirror7565/single_ended_cascode_current_mirror7565_0.17_6.0_0.11_7.0_0.13_12.0_0.24_3.0_0.17_8.0_0.16_17.0_0.25_5.0_0.11_16.0_0.43_0.3_0.14/spectre.dc

Maximum value achieved for any signal of each quantity: 
V: V(vdd!) = 1 V
I: I(V0:p) = 412.3 nA
Convergence achieved in 32 iterations.
DC simulation time: CPU = 5.567 ms, elapsed = 53.715 ms.
Total time required for dc analysis `dcswp-025_dcOp': CPU = 5.656 ms, elapsed =
        53.8058 ms, util. = 10.5%.
Time accumulated: CPU = 418.494 ms, elapsed = 3.1995 s.
Peak resident memory used = 208 Mbytes.


+++++++++++++++++++++++++++++++++++
dcswp: dc_offset = -474e-03 (2.6 %)
+++++++++++++++++++++++++++++++++++
Time for dcswp itNum=26: CPU = 238 us, elapsed = 244.141 us.
Time accumulated: CPU = 418.796 ms, elapsed = 3.19981 s.
Peak resident memory used = 208 Mbytes.


****************************
DC Analysis `dcswp-026_dcOp'
****************************

Opening the PSF file
        ./single_ended_cascode_current_mirror7565_0.17_6.0_0.11_7.0_0.13_12.0_0.24_3.0_0.17_8.0_0.16_17.0_0.25_5.0_0.11_16.0_0.43_0.3_0.14.raw/dcswp-026_dcOp.dc
        ...
Important parameter values:
    reltol = 1e-03
    abstol(V) = 1 uV
    abstol(I) = 1 pA
    temp = 27 C
    tnom = 27 C
    tempeffects = all
    gmindc = 1 pS

Notice from spectre at dc_offset = -474e-03 during DC analysis
        `dcswp-026_dcOp', during Sweep analysis `dcswp'.
    GminDC = 1 pS is large enough to noticeably affect the DC solution.
        dV(MM5:int_di) = 25.4679 mV
        Use the `gmin_check' option to eliminate or expand this report.

writing solution to
        /homes/natelgrw/Documents/titan_foundation_model/results/designs_single_ended_cascode_current_mirror7565/single_ended_cascode_current_mirror7565_0.17_6.0_0.11_7.0_0.13_12.0_0.24_3.0_0.17_8.0_0.16_17.0_0.25_5.0_0.11_16.0_0.43_0.3_0.14/spectre.dc

Maximum value achieved for any signal of each quantity: 
V: V(vdd!) = 1 V
I: I(V0:p) = 411.8 nA
Convergence achieved in 30 iterations.
DC simulation time: CPU = 4.705 ms, elapsed = 25.598 ms.
Total time required for dc analysis `dcswp-026_dcOp': CPU = 4.773 ms, elapsed =
        25.6631 ms, util. = 18.6%.
Time accumulated: CPU = 424.162 ms, elapsed = 3.26868 s.
Peak resident memory used = 208 Mbytes.


+++++++++++++++++++++++++++++++++++
dcswp: dc_offset = -473e-03 (2.7 %)
+++++++++++++++++++++++++++++++++++
Time for dcswp itNum=27: CPU = 250 us, elapsed = 250.101 us.
Time accumulated: CPU = 424.52 ms, elapsed = 3.26904 s.
Peak resident memory used = 208 Mbytes.


****************************
DC Analysis `dcswp-027_dcOp'
****************************

Opening the PSF file
        ./single_ended_cascode_current_mirror7565_0.17_6.0_0.11_7.0_0.13_12.0_0.24_3.0_0.17_8.0_0.16_17.0_0.25_5.0_0.11_16.0_0.43_0.3_0.14.raw/dcswp-027_dcOp.dc
        ...
Important parameter values:
    reltol = 1e-03
    abstol(V) = 1 uV
    abstol(I) = 1 pA
    temp = 27 C
    tnom = 27 C
    tempeffects = all
    gmindc = 1 pS

Notice from spectre at dc_offset = -473e-03 during DC analysis
        `dcswp-027_dcOp', during Sweep analysis `dcswp'.
    GminDC = 1 pS is large enough to noticeably affect the DC solution.
        dV(MM5:int_di) = 25.4691 mV
        Use the `gmin_check' option to eliminate or expand this report.

writing solution to
        /homes/natelgrw/Documents/titan_foundation_model/results/designs_single_ended_cascode_current_mirror7565/single_ended_cascode_current_mirror7565_0.17_6.0_0.11_7.0_0.13_12.0_0.24_3.0_0.17_8.0_0.16_17.0_0.25_5.0_0.11_16.0_0.43_0.3_0.14/spectre.dc

Maximum value achieved for any signal of each quantity: 
V: V(vdd!) = 1 V
I: I(V0:p) = 411.4 nA
Convergence achieved in 32 iterations.
DC simulation time: CPU = 4.819 ms, elapsed = 12.5461 ms.
Total time required for dc analysis `dcswp-027_dcOp': CPU = 4.91 ms, elapsed =
        12.64 ms, util. = 38.8%.
Time accumulated: CPU = 429.992 ms, elapsed = 3.2864 s.
Peak resident memory used = 208 Mbytes.


+++++++++++++++++++++++++++++++++++
dcswp: dc_offset = -472e-03 (2.8 %)
+++++++++++++++++++++++++++++++++++
Time for dcswp itNum=28: CPU = 181 us, elapsed = 180.96 us.
Time accumulated: CPU = 430.299 ms, elapsed = 3.28671 s.
Peak resident memory used = 208 Mbytes.


****************************
DC Analysis `dcswp-028_dcOp'
****************************

Opening the PSF file
        ./single_ended_cascode_current_mirror7565_0.17_6.0_0.11_7.0_0.13_12.0_0.24_3.0_0.17_8.0_0.16_17.0_0.25_5.0_0.11_16.0_0.43_0.3_0.14.raw/dcswp-028_dcOp.dc
        ...
Important parameter values:
    reltol = 1e-03
    abstol(V) = 1 uV
    abstol(I) = 1 pA
    temp = 27 C
    tnom = 27 C
    tempeffects = all
    gmindc = 1 pS

Notice from spectre at dc_offset = -472e-03 during DC analysis
        `dcswp-028_dcOp', during Sweep analysis `dcswp'.
    GminDC = 1 pS is large enough to noticeably affect the DC solution.
        dV(MM5:int_di) = 25.4715 mV
        Use the `gmin_check' option to eliminate or expand this report.

writing solution to
        /homes/natelgrw/Documents/titan_foundation_model/results/designs_single_ended_cascode_current_mirror7565/single_ended_cascode_current_mirror7565_0.17_6.0_0.11_7.0_0.13_12.0_0.24_3.0_0.17_8.0_0.16_17.0_0.25_5.0_0.11_16.0_0.43_0.3_0.14/spectre.dc

Maximum value achieved for any signal of each quantity: 
V: V(vdd!) = 1 V
I: I(V0:p) = 411 nA
Convergence achieved in 27 iterations.
DC simulation time: CPU = 6.43 ms, elapsed = 27.9589 ms.
Total time required for dc analysis `dcswp-028_dcOp': CPU = 6.502 ms, elapsed =
        28.0299 ms, util. = 23.2%.
Time accumulated: CPU = 437.291 ms, elapsed = 3.31999 s.
Peak resident memory used = 208 Mbytes.


+++++++++++++++++++++++++++++++++++
dcswp: dc_offset = -471e-03 (2.9 %)
+++++++++++++++++++++++++++++++++++
Time for dcswp itNum=29: CPU = 254 us, elapsed = 252.962 us.
Time accumulated: CPU = 437.663 ms, elapsed = 3.32036 s.
Peak resident memory used = 208 Mbytes.


****************************
DC Analysis `dcswp-029_dcOp'
****************************

[...]
        during Sweep analysis `dcswp'.
    GminDC = 1 pS is large enough to noticeably affect the DC solution.
        dV(MM7:int_di) = -23.3652 mV
        Use the `gmin_check' option to eliminate or expand this report.
    Bad pivoting is found during DC analysis. Option dc_pivot_check=yes is
        recommended for possible improvement of convergence.

writing solution to
        /homes/natelgrw/Documents/titan_foundation_model/results/designs_single_ended_cascode_current_mirror7565/single_ended_cascode_current_mirror7565_0.17_6.0_0.11_7.0_0.13_12.0_0.24_3.0_0.17_8.0_0.16_17.0_0.25_5.0_0.11_16.0_0.43_0.3_0.14/spectre.dc

Maximum value achieved for any signal of each quantity: 
V: V(vdd!) = 1 V
I: I(V0:p) = 414.1 nA
Convergence achieved in 39 iterations.
DC simulation time: CPU = 5.495 ms, elapsed = 12.6112 ms.
Total time required for dc analysis `dcswp-995_dcOp': CPU = 5.57 ms, elapsed =
        12.686 ms, util. = 43.9%.
Time accumulated: CPU = 8.05122 s, elapsed = 64.8507 s (1m  4.9s).
Peak resident memory used = 211 Mbytes.


+++++++++++++++++++++++++++++++++++
dcswp: dc_offset = 496e-03 (99.6 %)
+++++++++++++++++++++++++++++++++++
Time for dcswp itNum=996: CPU = 135 us, elapsed = 141.859 us.
Time accumulated: CPU = 8.05143 s, elapsed = 64.8509 s (1m  4.9s).
Peak resident memory used = 211 Mbytes.


****************************
DC Analysis `dcswp-996_dcOp'
****************************

Opening the PSF file
        ./single_ended_cascode_current_mirror7565_0.17_6.0_0.11_7.0_0.13_12.0_0.24_3.0_0.17_8.0_0.16_17.0_0.25_5.0_0.11_16.0_0.43_0.3_0.14.raw/dcswp-996_dcOp.dc
        ...
Important parameter values:
    reltol = 1e-03
    abstol(V) = 1 uV
    abstol(I) = 1 pA
    temp = 27 C
    tnom = 27 C
    tempeffects = all
    gmindc = 1 pS

Notice from spectre at dc_offset = 496e-03 during DC analysis `dcswp-996_dcOp',
        during Sweep analysis `dcswp'.
    GminDC = 1 pS is large enough to noticeably affect the DC solution.
        dV(MM7:int_di) = -23.2915 mV
        Use the `gmin_check' option to eliminate or expand this report.
    Bad pivoting is found during DC analysis. Option dc_pivot_check=yes is
        recommended for possible improvement of convergence.

writing solution to
        /homes/natelgrw/Documents/titan_foundation_model/results/designs_single_ended_cascode_current_mirror7565/single_ended_cascode_current_mirror7565_0.17_6.0_0.11_7.0_0.13_12.0_0.24_3.0_0.17_8.0_0.16_17.0_0.25_5.0_0.11_16.0_0.43_0.3_0.14/spectre.dc

Maximum value achieved for any signal of each quantity: 
V: V(vdd!) = 1 V
I: I(V0:p) = 414.5 nA
Convergence achieved in 50 iterations.
DC simulation time: CPU = 6.604 ms, elapsed = 50.8561 ms.
Total time required for dc analysis `dcswp-996_dcOp': CPU = 6.675 ms, elapsed =
        50.926 ms, util. = 13.1%.
Time accumulated: CPU = 8.05855 s, elapsed = 64.9138 s (1m  4.9s).
Peak resident memory used = 211 Mbytes.


+++++++++++++++++++++++++++++++++++
dcswp: dc_offset = 497e-03 (99.7 %)
+++++++++++++++++++++++++++++++++++
Time for dcswp itNum=997: CPU = 132 us, elapsed = 133.038 us.
Time accumulated: CPU = 8.05878 s, elapsed = 64.9141 s (1m  4.9s).
Peak resident memory used = 211 Mbytes.


****************************
DC Analysis `dcswp-997_dcOp'
****************************

Opening the PSF file
        ./single_ended_cascode_current_mirror7565_0.17_6.0_0.11_7.0_0.13_12.0_0.24_3.0_0.17_8.0_0.16_17.0_0.25_5.0_0.11_16.0_0.43_0.3_0.14.raw/dcswp-997_dcOp.dc
        ...
Important parameter values:
    reltol = 1e-03
    abstol(V) = 1 uV
    abstol(I) = 1 pA
    temp = 27 C
    tnom = 27 C
    tempeffects = all
    gmindc = 1 pS

Notice from spectre at dc_offset = 497e-03 during DC analysis `dcswp-997_dcOp',
        during Sweep analysis `dcswp'.
    GminDC = 1 pS is large enough to noticeably affect the DC solution.
        dV(MM7:int_di) = -23.4044 mV
        Use the `gmin_check' option to eliminate or expand this report.
    Bad pivoting is found during DC analysis. Option dc_pivot_check=yes is
        recommended for possible improvement of convergence.

writing solution to
        /homes/natelgrw/Documents/titan_foundation_model/results/designs_single_ended_cascode_current_mirror7565/single_ended_cascode_current_mirror7565_0.17_6.0_0.11_7.0_0.13_12.0_0.24_3.0_0.17_8.0_0.16_17.0_0.25_5.0_0.11_16.0_0.43_0.3_0.14/spectre.dc

Maximum value achieved for any signal of each quantity: 
V: V(vdd!) = 1 V
I: I(V0:p) = 414.9 nA
Convergence achieved in 46 iterations.
DC simulation time: CPU = 6.014 ms, elapsed = 79.4671 ms.
Total time required for dc analysis `dcswp-997_dcOp': CPU = 6.067 ms, elapsed =
        79.52 ms, util. = 7.63%.
Time accumulated: CPU = 8.06533 s, elapsed = 64.9977 s (1m  5.0s).
Peak resident memory used = 211 Mbytes.


+++++++++++++++++++++++++++++++++++
dcswp: dc_offset = 498e-03 (99.8 %)
+++++++++++++++++++++++++++++++++++
Time for dcswp itNum=998: CPU = 140 us, elapsed = 141.144 us.
Time accumulated: CPU = 8.06554 s, elapsed = 64.9979 s (1m  5.0s).
Peak resident memory used = 211 Mbytes.


****************************
DC Analysis `dcswp-998_dcOp'
****************************

Opening the PSF file
        ./single_ended_cascode_current_mirror7565_0.17_6.0_0.11_7.0_0.13_12.0_0.24_3.0_0.17_8.0_0.16_17.0_0.25_5.0_0.11_16.0_0.43_0.3_0.14.raw/dcswp-998_dcOp.dc
        ...
Important parameter values:
    reltol = 1e-03
    abstol(V) = 1 uV
    abstol(I) = 1 pA
    temp = 27 C
    tnom = 27 C
    tempeffects = all
    gmindc = 1 pS

Notice from spectre at dc_offset = 498e-03 during DC analysis `dcswp-998_dcOp',
        during Sweep analysis `dcswp'.
    GminDC = 1 pS is large enough to noticeably affect the DC solution.
        dV(MM7:int_di) = -23.3422 mV
        Use the `gmin_check' option to eliminate or expand this report.
    Bad pivoting is found during DC analysis. Option dc_pivot_check=yes is
        recommended for possible improvement of convergence.

writing solution to
        /homes/natelgrw/Documents/titan_foundation_model/results/designs_single_ended_cascode_current_mirror7565/single_ended_cascode_current_mirror7565_0.17_6.0_0.11_7.0_0.13_12.0_0.24_3.0_0.17_8.0_0.16_17.0_0.25_5.0_0.11_16.0_0.43_0.3_0.14/spectre.dc

Maximum value achieved for any signal of each quantity: 
V: V(vdd!) = 1 V
I: I(V0:p) = 415.4 nA
Convergence achieved in 32 iterations.
DC simulation time: CPU = 5.259 ms, elapsed = 43.741 ms.
Total time required for dc analysis `dcswp-998_dcOp': CPU = 5.347 ms, elapsed =
        43.8261 ms, util. = 12.2%.
Time accumulated: CPU = 8.07135 s, elapsed = 65.0607 s (1m  5.1s).
Peak resident memory used = 211 Mbytes.


+++++++++++++++++++++++++++++++++++
dcswp: dc_offset = 499e-03 (99.9 %)
+++++++++++++++++++++++++++++++++++
Time for dcswp itNum=999: CPU = 115 us, elapsed = 116.11 us.
Time accumulated: CPU = 8.07156 s, elapsed = 65.0609 s (1m  5.1s).
Peak resident memory used = 211 Mbytes.


****************************
DC Analysis `dcswp-999_dcOp'
****************************

Opening the PSF file
        ./single_ended_cascode_current_mirror7565_0.17_6.0_0.11_7.0_0.13_12.0_0.24_3.0_0.17_8.0_0.16_17.0_0.25_5.0_0.11_16.0_0.43_0.3_0.14.raw/dcswp-999_dcOp.dc
        ...
Important parameter values:
    reltol = 1e-03
    abstol(V) = 1 uV
    abstol(I) = 1 pA
    temp = 27 C
    tnom = 27 C
    tempeffects = all
    gmindc = 1 pS

Notice from spectre at dc_offset = 499e-03 during DC analysis `dcswp-999_dcOp',
        during Sweep analysis `dcswp'.
    GminDC = 1 pS is large enough to noticeably affect the DC solution.
        dV(MM7:int_di) = -23.3663 mV
        Use the `gmin_check' option to eliminate or expand this report.
    Bad pivoting is found during DC analysis. Option dc_pivot_check=yes is
        recommended for possible improvement of convergence.

writing solution to
        /homes/natelgrw/Documents/titan_foundation_model/results/designs_single_ended_cascode_current_mirror7565/single_ended_cascode_current_mirror7565_0.17_6.0_0.11_7.0_0.13_12.0_0.24_3.0_0.17_8.0_0.16_17.0_0.25_5.0_0.11_16.0_0.43_0.3_0.14/spectre.dc

Maximum value achieved for any signal of each quantity: 
V: V(vdd!) = 1 V
I: I(V0:p) = 415.8 nA
Convergence achieved in 24 iterations.
DC simulation time: CPU = 4.794 ms, elapsed = 12.1081 ms.
Total time required for dc analysis `dcswp-999_dcOp': CPU = 4.845 ms, elapsed =
        12.1591 ms, util. = 39.8%.
Time accumulated: CPU = 8.07692 s, elapsed = 65.0913 s (1m  5.1s).
Peak resident memory used = 211 Mbytes.


++++++++++++++++++++++++++++++++++
dcswp: dc_offset = 500e-03 (100 %)
++++++++++++++++++++++++++++++++++
Time for dcswp itNum=1000: CPU = 269 us, elapsed = 268.936 us.
Time accumulated: CPU = 8.07727 s, elapsed = 65.0917 s (1m  5.1s).
Peak resident memory used = 211 Mbytes.


*****************************
DC Analysis `dcswp-1000_dcOp'
*****************************

Opening the PSF file
        ./single_ended_cascode_current_mirror7565_0.17_6.0_0.11_7.0_0.13_12.0_0.24_3.0_0.17_8.0_0.16_17.0_0.25_5.0_0.11_16.0_0.43_0.3_0.14.raw/dcswp-1000_dcOp.dc
        ...
Important parameter values:
    reltol = 1e-03
    abstol(V) = 1 uV
    abstol(I) = 1 pA
    temp = 27 C
    tnom = 27 C
    tempeffects = all
    gmindc = 1 pS

Notice from spectre at dc_offset = 500e-03 during DC analysis
        `dcswp-1000_dcOp', during Sweep analysis `dcswp'.
    GminDC = 1 pS is large enough to noticeably affect the DC solution.
        dV(MM7:int_di) = -23.4035 mV
        Use the `gmin_check' option to eliminate or expand this report.
    Bad pivoting is found during DC analysis. Option dc_pivot_check=yes is
        recommended for possible improvement of convergence.

writing solution to
        /homes/natelgrw/Documents/titan_foundation_model/results/designs_single_ended_cascode_current_mirror7565/single_ended_cascode_current_mirror7565_0.17_6.0_0.11_7.0_0.13_12.0_0.24_3.0_0.17_8.0_0.16_17.0_0.25_5.0_0.11_16.0_0.43_0.3_0.14/spectre.dc

Maximum value achieved for any signal of each quantity: 
V: V(vdd!) = 1 V
I: I(V0:p) = 416.2 nA
Convergence achieved in 37 iterations.
DC simulation time: CPU = 5.633 ms, elapsed = 37.349 ms.
Total time required for dc analysis `dcswp-1000_dcOp': CPU = 5.687 ms, elapsed
        = 37.4031 ms, util. = 15.2%.
Time accumulated: CPU = 8.08345 s, elapsed = 65.1339 s (1m  5.1s).
Peak resident memory used = 211 Mbytes.

Total time required for sweep analysis `dcswp': CPU = 7.81056 s, elapsed =
        63.8521 s (1m  3.9s), util. = 12.2%.
Time accumulated: CPU = 8.08419 s, elapsed = 65.1796 s (1m  5.2s).
Peak resident memory used = 211 Mbytes.


************************
Sweep Analysis `transwp'
************************

Opening the PSF file
        ./single_ended_cascode_current_mirror7565_0.17_6.0_0.11_7.0_0.13_12.0_0.24_3.0_0.17_8.0_0.16_17.0_0.25_5.0_0.11_16.0_0.43_0.3_0.14.raw/transwp_mytran.sweep
        ...

+++++++++++++++++++
transwp:  = 1 (0 %)
+++++++++++++++++++
Time for transwp itNum=0: CPU = 2.611 ms, elapsed = 3.91388 ms.
Time accumulated: CPU = 8.08689 s, elapsed = 65.1836 s (1m  5.2s).
Peak resident memory used = 211 Mbytes.


***************************************************************
Transient Analysis `transwp-000_mytran': time = (0 s -> 100 ns)
***************************************************************

Notice from spectre at use_tran = 1 during IC analysis, during transient
        analysis `transwp-000_mytran', during Sweep analysis `transwp'.
    GminDC = 1 pS is large enough to noticeably affect the DC solution.
        dV(MM6:int_di) = 22.7582 mV
        Use the `gmin_check' option to eliminate or expand this report.
    Bad pivoting is found during DC analysis. Option dc_pivot_check=yes is
        recommended for possible improvement of convergence.

Convergence achieved in 24 iterations.
DC simulation time: CPU = 2.307 ms, elapsed = 2.32196 ms.

Opening the PSF file
        ./single_ended_cascode_current_mirror7565_0.17_6.0_0.11_7.0_0.13_12.0_0.24_3.0_0.17_8.0_0.16_17.0_0.25_5.0_0.11_16.0_0.43_0.3_0.14.raw/transwp-000_mytran.tran.tran
        ...
Important parameter values:
    start = 0 s
    outputstart = 0 s
    stop = 100 ns
    step = 100 ps
    maxstep = 2 ns
    ic = all
    useprevic = no
    skipdc = no
    reltol = 1e-03
    abstol(V) = 1 uV
    abstol(I) = 1 pA
    temp = 27 C
    tnom = 27 C
    tempeffects = all
    errpreset = moderate
    method = traponly
    lteratio = 3.5
    relref = sigglobal
    cmin = 0 F
    gmin = 1 pS


Output and IC/nodeset summary:
                 save   23      (current)
                 save   55      (voltage)
                 others 15      
                 save   15      (unitless)

    transwp-000_mytran: time = 2.905 ns     (2.9 %), step = 879.5 ps     (879
        m%)
    transwp-000_mytran: time = 8.457 ns    (8.46 %), step = 2 ns            (2
        %)
    transwp-000_mytran: time = 14.46 ns    (14.5 %), step = 2 ns            (2
        %)
    transwp-000_mytran: time = 18.46 ns    (18.5 %), step = 2 ns            (2
        %)
    transwp-000_mytran: time = 22.54 ns    (22.5 %), step = 592.7 ps     (593
        m%)
    transwp-000_mytran: time = 29.45 ns    (29.4 %), step = 2 ns            (2
        %)

Notice from spectre at time = 31.449 ns during transient analysis
        `transwp-000_mytran', during Sweep analysis `transwp'.
    Found trapezoidal ringing on node MM5:int_di.
Notice from spectre at time = 33.449 ns during transient analysis
        `transwp-000_mytran', during Sweep analysis `transwp'.
    Found trapezoidal ringing on node MM5:int_di.

    transwp-000_mytran: time = 33.45 ns    (33.4 %), step = 2 ns            (2
        %)

Notice from spectre at time = 35.449 ns during transient analysis
        `transwp-000_mytran', during Sweep analysis `transwp'.
    Found trapezoidal ringing on node MM5:int_di.
Notice from spectre at time = 37.449 ns during transient analysis
        `transwp-000_mytran', during Sweep analysis `transwp'.
    Found trapezoidal ringing on node MM5:int_di.
Notice from spectre at time = 39.449 ns during transient analysis
        `transwp-000_mytran', during Sweep analysis `transwp'.
    Found trapezoidal ringing on node MM5:int_di.
        Further occurrences of this notice will be suppressed (except in log
        file).

    transwp-000_mytran: time = 39.45 ns    (39.4 %), step = 2 ns            (2
        %)
    transwp-000_mytran: time = 42.9 ns     (42.9 %), step = 877.8 ps     (878
        m%)
    transwp-000_mytran: time = 48.45 ns    (48.5 %), step = 2 ns            (2
        %)
    transwp-000_mytran: time = 54.45 ns    (54.5 %), step = 2 ns            (2
        %)
    transwp-000_mytran: time = 58.45 ns    (58.5 %), step = 2 ns            (2
        %)
    transwp-000_mytran: time = 62.54 ns    (62.5 %), step = 592.7 ps     (593
        m%)
    transwp-000_mytran: time = 69.45 ns    (69.4 %), step = 2 ns            (2
        %)
    transwp-000_mytran: time = 73.45 ns    (73.4 %), step = 2 ns            (2
        %)
    transwp-000_mytran: time = 79.45 ns    (79.4 %), step = 2 ns            (2
        %)
    transwp-000_mytran: time = 82.9 ns     (82.9 %), step = 877.8 ps     (878
        m%)
    transwp-000_mytran: time = 88.45 ns    (88.5 %), step = 2 ns            (2
        %)
    transwp-000_mytran: time = 94.45 ns    (94.5 %), step = 2 ns            (2
        %)
    transwp-000_mytran: time = 98.45 ns    (98.5 %), step = 2 ns            (2
        %)
Number of accepted tran steps =             118

Notice from spectre during transient analysis `transwp-000_mytran', during
        Sweep analysis `transwp'.
    Trapezoidal ringing is detected during tran analysis.
        Please use method=trap for better results and performance.


Maximum value achieved for any signal of each quantity: 
V: V(MM2:int_si) = 1 V
I: I(E2:p) = 1.507 uA
If your circuit contains signals of the same quantity that are vastly different
        in size (such as high voltage circuitry combined with low voltage
        control circuitry), you should consider specifying global option
        `bin_relref=yes'.

~~~~~~~~~~~~~~~~~~~~~~~~~~~~~~~~~
Post-Transient Simulation Summary
~~~~~~~~~~~~~~~~~~~~~~~~~~~~~~~~~
   -   To further speed up simulation, consider
          add ++aps on command line
~~~~~~~~~~~~~~~~~~~~~~~~~~~~~~~~~


During simulation, the CPU load for active processors is :
         0 (2.7 %)       1 (3.5 %)       2 (2.4 %)       3 (2.9 %)
         4 (7.4 %)       5 (3.0 %)       6 (3.9 %)       7 (3.0 %)
         8 (1.4 %)       9 (1.5 %)      10 (1.5 %)      11 (1.4 %)
        12 (1.8 %)      13 (1.1 %)      15 (1.4 %)      16 (2.6 %)
        17 (3.0 %)      18 (2.2 %)      19 (2.2 %)      20 (1.8 %)
        21 (4.7 %)      22 (3.0 %)      23 (2.6 %)      24 (1.5 %)
        25 (1.3 %)      26 (1.3 %)      27 (1.1 %)      28 (1.8 %)
        29 (2.1 %)      30 (1.3 %)      31 (1.5 %)      
        Total: 73.8%
Initial condition solution time: CPU = 2.335 ms, elapsed = 2.35105 ms.
Intrinsic tran analysis time:    CPU = 44.663 ms, elapsed = 46.9952 ms.
Total time required for tran analysis `transwp-000_mytran': CPU = 49.42 ms,
        elapsed = 54.1589 ms, util. = 91.2%.
Time accumulated: CPU = 8.13977 s, elapsed = 65.2716 s (1m  5.3s).
Peak resident memory used = 213 Mbytes.


Notice from spectre during transient analysis `transwp-000_mytran', during
        Sweep analysis `transwp'.
    7 notices suppressed.

Total time required for sweep analysis `transwp': CPU = 55.616 ms, elapsed =
        111.641 ms, util. = 49.8%.
Time accumulated: CPU = 8.14061 s, elapsed = 65.2921 s (1m  5.3s).
Peak resident memory used = 213 Mbytes.

dcOpInfo: writing operating point information to rawfile.

Opening the PSF file
        ./single_ended_cascode_current_mirror7565_0.17_6.0_0.11_7.0_0.13_12.0_0.24_3.0_0.17_8.0_0.16_17.0_0.25_5.0_0.11_16.0_0.43_0.3_0.14.raw/dcOpInfo.info
        ...
modelParameter: writing model parameter values to rawfile.

Opening the PSF file
        ./single_ended_cascode_current_mirror7565_0.17_6.0_0.11_7.0_0.13_12.0_0.24_3.0_0.17_8.0_0.16_17.0_0.25_5.0_0.11_16.0_0.43_0.3_0.14.raw/modelParameter.info
        ...
element: writing instance parameter values to rawfile.

Opening the PSF file
        ./single_ended_cascode_current_mirror7565_0.17_6.0_0.11_7.0_0.13_12.0_0.24_3.0_0.17_8.0_0.16_17.0_0.25_5.0_0.11_16.0_0.43_0.3_0.14.raw/element.info
        ...
outputParameter: writing output parameter values to rawfile.

Opening the PSF file
        ./single_ended_cascode_current_mirror7565_0.17_6.0_0.11_7.0_0.13_12.0_0.24_3.0_0.17_8.0_0.16_17.0_0.25_5.0_0.11_16.0_0.43_0.3_0.14.raw/outputParameter.info
        ...
designParamVals: writing netlist parameters to rawfile.

Opening the PSFASCII file
        ./single_ended_cascode_current_mirror7565_0.17_6.0_0.11_7.0_0.13_12.0_0.24_3.0_0.17_8.0_0.16_17.0_0.25_5.0_0.11_16.0_0.43_0.3_0.14.raw/designParamVals.info
        ...
primitives: writing primitives to rawfile.

Opening the PSFASCII file
        ./single_ended_cascode_current_mirror7565_0.17_6.0_0.11_7.0_0.13_12.0_0.24_3.0_0.17_8.0_0.16_17.0_0.25_5.0_0.11_16.0_0.43_0.3_0.14.raw/primitives.info.primitives
        ...
subckts: writing subcircuits to rawfile.

Opening the PSFASCII file
        ./single_ended_cascode_current_mirror7565_0.17_6.0_0.11_7.0_0.13_12.0_0.24_3.0_0.17_8.0_0.16_17.0_0.25_5.0_0.11_16.0_0.43_0.3_0.14.raw/subckts.info.subckts
        ...
Licensing Information:
Lic Summary:
[18:33:36.139523] Cdslmd servers:@mtlcadlic1
[18:33:36.663856] Feature usage summary:
[18:33:36.663857] Virtuoso_Multi_mode_Simulation


Aggregate audit (6:33:36 PM, Thur Aug 7, 2025):
Time used: CPU = 8.17 s, elapsed = 65.6 s (1m  5.6s), util. = 12.4%.
Time spent in licensing: elapsed = 154 ms.
Peak memory used = 215 Mbytes.
Simulation started at: 6:32:31 PM, Thur Aug 7, 2025, ended at: 6:33:36 PM, Thur
        Aug 7, 2025, with elapsed time (wall clock): 65.6 s (1m  5.6s).
spectre completes with 0 errors, 3 warnings, and 1646 notices.
