
Spectre (R) Circuit Simulator
Version 24.1.0.371.isr8 64bit -- 11 Jul 2025
Copyright (C) 1989-2025 Cadence Design Systems, Inc. All rights reserved
        worldwide. Cadence and Spectre are registered trademarks of Cadence
        Design Systems, Inc. All others are the property of their respective
        holders.

Includes RSA BSAFE(R) Cryptographic or Security Protocol Software from RSA
        Security, Inc.

User: natelgrw   Host: mtlcad2   HostID: 19126208   PID: 1774817
Memory  available: 496.1636 GB  physical: 540.9140 GB
Linux   : Red Hat Enterprise Linux release 8.10 (Ootpa)
CPU Type: Intel(R) Xeon(R) CPU E5-2620 v4 @ 2.10GHz
        Socket: Processors [Frequency] (Hyperthreaded Processor)
        0:       0 [3000.0] ( 16 ),  1 [2393.1] ( 17 ),  2 [3000.0] ( 18 )
                 3 [3000.0] ( 19 ),  4 [3000.0] ( 20 ),  5 [3000.0] ( 21 )
                 6 [2194.6] ( 22 ),  7 [3000.0] ( 23 )
        1:       8 [3000.0] ( 24 ),  9 [3000.0] ( 25 ), 10 [3000.0] ( 26 )
                11 [3000.0] ( 27 ), 12 [3000.0] ( 28 ), 13 [3000.0] ( 29 )
                14 [2995.6] ( 30 ), 15 [3000.0] ( 31 )
        
System load averages (1min, 5min, 15min) : 5.4 %, 5.8 %, 5.4 %
Hyperthreading is enabled


Simulating
        `/homes/natelgrw/Documents/titan_foundation_model/results/designs_single_ended_cascode_current_mirror6421/single_ended_cascode_current_mirror6421_0.2_7.0_0.2_19.0_0.27_8.0_0.29_7.0_0.1_5.0_0.21_13.0_0.22_7.0_0.29_17.0_0.52_0.23_0.06/single_ended_cascode_current_mirror6421_0.2_7.0_0.2_19.0_0.27_8.0_0.29_7.0_0.1_5.0_0.21_13.0_0.22_7.0_0.29_17.0_0.52_0.23_0.06.scs'
        on mtlcad2 at 6:34:08 PM, Thur Aug 7, 2025 (process id: 1774817).
Current working directory:
        /homes/natelgrw/Documents/titan_foundation_model/results/designs_single_ended_cascode_current_mirror6421/single_ended_cascode_current_mirror6421_0.2_7.0_0.2_19.0_0.27_8.0_0.29_7.0_0.1_5.0_0.21_13.0_0.22_7.0_0.29_17.0_0.52_0.23_0.06
Command line:
    /opt/cadence/SPECTRE/24.10.08.371/tools/bin/spectre -64  \
        /homes/natelgrw/Documents/titan_foundation_model/results/designs_single_ended_cascode_current_mirror6421/single_ended_cascode_current_mirror6421_0.2_7.0_0.2_19.0_0.27_8.0_0.29_7.0_0.1_5.0_0.21_13.0_0.22_7.0_0.29_17.0_0.52_0.23_0.06/single_ended_cascode_current_mirror6421_0.2_7.0_0.2_19.0_0.27_8.0_0.29_7.0_0.1_5.0_0.21_13.0_0.22_7.0_0.29_17.0_0.52_0.23_0.06.scs
        \
        -format psfbin \>\ /dev/null\ 2\>\&1
Licensing Information:
[18:34:08.066497] Configured Lic search path (24.01-s002): @mtlcadlic1

Licensing Information:
[18:34:08.345274] Periodic Lic check successful

Reading file: 
        /homes/natelgrw/Documents/titan_foundation_model/results/designs_single_ended_cascode_current_mirror6421/single_ended_cascode_current_mirror6421_0.2_7.0_0.2_19.0_0.27_8.0_0.29_7.0_0.1_5.0_0.21_13.0_0.22_7.0_0.29_17.0_0.52_0.23_0.06/single_ended_cascode_current_mirror6421_0.2_7.0_0.2_19.0_0.27_8.0_0.29_7.0_0.1_5.0_0.21_13.0_0.22_7.0_0.29_17.0_0.52_0.23_0.06.scs
Reading link:  /opt/cadence
Reading file: 
        /u/cadence/SPECTRE/24.10.08.371/tools.lnx86/spectre/etc/configs/spectre.cfg
Reading file:  /homes/natelgrw/Documents/titan_foundation_model/lstp/7nfet.pm
Reading file:  /homes/natelgrw/Documents/titan_foundation_model/lstp/7pfet.pm
Time for NDB Parsing: CPU = 82.239 ms, elapsed = 242.254 ms.
Time accumulated: CPU = 204.26 ms, elapsed = 242.256 ms.
Peak resident memory used = 187 Mbytes.


Warning from spectre during hierarchy flattening.
    WARNING (SFE-884):
        "/homes/natelgrw/Documents/titan_foundation_model/results/designs_single_ended_cascode_current_mirror6421/single_ended_cascode_current_mirror6421_0.2_7.0_0.2_19.0_0.27_8.0_0.29_7.0_0.1_5.0_0.21_13.0_0.22_7.0_0.29_17.0_0.52_0.23_0.06/single_ended_cascode_current_mirror6421_0.2_7.0_0.2_19.0_0.27_8.0_0.29_7.0_0.1_5.0_0.21_13.0_0.22_7.0_0.29_17.0_0.52_0.23_0.06.scs"
        53: The option 'rawfmt' is deleted because it is redefined at
        '/homes/natelgrw/Documents/titan_foundation_model/results/designs_single_ended_cascode_current_mirror6421/single_ended_cascode_current_mirror6421_0.2_7.0_0.2_19.0_0.27_8.0_0.29_7.0_0.1_5.0_0.21_13.0_0.22_7.0_0.29_17.0_0.52_0.23_0.06/single_ended_cascode_current_mirror6421_0.2_7.0_0.2_19.0_0.27_8.0_0.29_7.0_0.1_5.0_0.21_13.0_0.22_7.0_0.29_17.0_0.52_0.23_0.06.scs':line
        '85'.
Warning from spectre during hierarchy flattening.
    WARNING (SFE-32):
        "/homes/natelgrw/Documents/titan_foundation_model/lstp/7pfet.pm" 4:
        Duplicate specification for parameter `bulkmod' (using last value
        specified).
    WARNING (SFE-32):
        "/homes/natelgrw/Documents/titan_foundation_model/lstp/7nfet.pm" 4:
        Duplicate specification for parameter `bulkmod' (using last value
        specified).

Time for Elaboration: CPU = 19.759 ms, elapsed = 20.7791 ms.
Time accumulated: CPU = 224.133 ms, elapsed = 263.148 ms.
Peak resident memory used = 196 Mbytes.


Notice from spectre during hierarchy flattening.
    The value 'psf' specified for the 'checklimitdest' option will no longer be
        supported in future releases. Use 'spectre -h' to see other recommended
        values for the 'checklimitdest' option.


Time for EDB Visiting: CPU = 1.182 ms, elapsed = 1.19114 ms.
Time accumulated: CPU = 225.419 ms, elapsed = 264.441 ms.
Peak resident memory used = 200 Mbytes.


Notice from spectre during topology check.
    Only one connection to node `0'.


Global user options:
         psfversion = 1.4.0
            vabstol = 1e-06
            iabstol = 1e-12
               temp = 27
               gmin = 1e-12
             rforce = 1
           maxnotes = 5
           maxwarns = 5
             digits = 5
               cols = 80
             pivrel = 0.001
           sensfile = ../psf/sens.output
     checklimitdest = psf
               save = allpub
             rawfmt = psfbin
             reltol = 0.001
               tnom = 27
             scalem = 1
              scale = 1

Scoped user options:

Circuit inventory:
              nodes 25
            bsimcmg 15    
          capacitor 1     
           resistor 5     
               vcvs 4     
            vsource 8     

Analysis and control statement inventory:
                 ac 1     
                 dc 1     
               info 7     
              noise 1     
              sweep 3     
               tran 1     

Output statements:
             .probe 0     
           .measure 0     
               save 1     

Time for parsing: CPU = 3.412 ms, elapsed = 166.393 ms.
Time accumulated: CPU = 228.964 ms, elapsed = 430.967 ms.
Peak resident memory used = 204 Mbytes.

~~~~~~~~~~~~~~~~~~~~~~
Pre-Simulation Summary
~~~~~~~~~~~~~~~~~~~~~~
~~~~~~~~~~~~~~~~~~~~~~

*************************************************
Noise Analysis `noise': freq = (1 MHz -> 500 MHz)
*************************************************
Trying `homotopy = gmin'.
Homotopy: gmin, steps: 12

Notice from spectre during DC analysis, during Noise analysis `noise'.
    Bad pivoting is found during DC analysis. Option dc_pivot_check=yes is
        recommended for possible improvement of convergence.

Convergence achieved in 209 iterations.
DC simulation time: CPU = 14.458 ms, elapsed = 14.5168 ms.

Opening the PSF file
        ./single_ended_cascode_current_mirror6421_0.2_7.0_0.2_19.0_0.27_8.0_0.29_7.0_0.1_5.0_0.21_13.0_0.22_7.0_0.29_17.0_0.52_0.23_0.06.raw/noise.noise
        ...
    noise: freq = 1.259 MHz    (3.7 %), step = 136.9 kHz    (1.85 %)
    noise: freq = 1.413 MHz   (5.56 %), step = 153.6 kHz    (1.85 %)
    noise: freq = 1.585 MHz   (7.41 %), step = 172.4 kHz    (1.85 %)
    noise: freq = 1.778 MHz   (9.26 %), step = 193.4 kHz    (1.85 %)
    noise: freq = 1.995 MHz   (11.1 %), step = 217 kHz      (1.85 %)
    noise: freq = 2.239 MHz     (13 %), step = 243.5 kHz    (1.85 %)
    noise: freq = 2.512 MHz   (14.8 %), step = 273.2 kHz    (1.85 %)
    noise: freq = 2.818 MHz   (16.7 %), step = 306.5 kHz    (1.85 %)
    noise: freq = 3.162 MHz   (18.5 %), step = 343.9 kHz    (1.85 %)
    noise: freq = 3.548 MHz   (20.4 %), step = 385.9 kHz    (1.85 %)
    noise: freq = 3.981 MHz   (22.2 %), step = 432.9 kHz    (1.85 %)
    noise: freq = 4.467 MHz   (24.1 %), step = 485.8 kHz    (1.85 %)
    noise: freq = 5.012 MHz   (25.9 %), step = 545 kHz      (1.85 %)
    noise: freq = 5.623 MHz   (27.8 %), step = 611.5 kHz    (1.85 %)
    noise: freq = 6.31 MHz    (29.6 %), step = 686.2 kHz    (1.85 %)
    noise: freq = 7.079 MHz   (31.5 %), step = 769.9 kHz    (1.85 %)
    noise: freq = 7.943 MHz   (33.3 %), step = 863.8 kHz    (1.85 %)
    noise: freq = 8.913 MHz   (35.2 %), step = 969.2 kHz    (1.85 %)
    noise: freq = 10 MHz        (37 %), step = 1.087 MHz    (1.85 %)
    noise: freq = 11.22 MHz   (38.9 %), step = 1.22 MHz     (1.85 %)
    noise: freq = 12.59 MHz   (40.7 %), step = 1.369 MHz    (1.85 %)
    noise: freq = 14.13 MHz   (42.6 %), step = 1.536 MHz    (1.85 %)
    noise: freq = 15.85 MHz   (44.4 %), step = 1.724 MHz    (1.85 %)
    noise: freq = 17.78 MHz   (46.3 %), step = 1.934 MHz    (1.85 %)
    noise: freq = 19.95 MHz   (48.1 %), step = 2.17 MHz     (1.85 %)
    noise: freq = 22.39 MHz     (50 %), step = 2.435 MHz    (1.85 %)
    noise: freq = 25.12 MHz   (51.9 %), step = 2.732 MHz    (1.85 %)
    noise: freq = 28.18 MHz   (53.7 %), step = 3.065 MHz    (1.85 %)
    noise: freq = 31.62 MHz   (55.6 %), step = 3.439 MHz    (1.85 %)
    noise: freq = 35.48 MHz   (57.4 %), step = 3.859 MHz    (1.85 %)
    noise: freq = 39.81 MHz   (59.3 %), step = 4.329 MHz    (1.85 %)
    noise: freq = 44.67 MHz   (61.1 %), step = 4.858 MHz    (1.85 %)
    noise: freq = 50.12 MHz     (63 %), step = 5.45 MHz     (1.85 %)
    noise: freq = 56.23 MHz   (64.8 %), step = 6.115 MHz    (1.85 %)
    noise: freq = 63.1 MHz    (66.7 %), step = 6.862 MHz    (1.85 %)
    noise: freq = 70.79 MHz   (68.5 %), step = 7.699 MHz    (1.85 %)
    noise: freq = 79.43 MHz   (70.4 %), step = 8.638 MHz    (1.85 %)
    noise: freq = 89.13 MHz   (72.2 %), step = 9.692 MHz    (1.85 %)
    noise: freq = 100 MHz     (74.1 %), step = 10.87 MHz    (1.85 %)
    noise: freq = 112.2 MHz   (75.9 %), step = 12.2 MHz     (1.85 %)
    noise: freq = 125.9 MHz   (77.8 %), step = 13.69 MHz    (1.85 %)
    noise: freq = 141.3 MHz   (79.6 %), step = 15.36 MHz    (1.85 %)
    noise: freq = 158.5 MHz   (81.5 %), step = 17.24 MHz    (1.85 %)
    noise: freq = 177.8 MHz   (83.3 %), step = 19.34 MHz    (1.85 %)
    noise: freq = 199.5 MHz   (85.2 %), step = 21.7 MHz     (1.85 %)
    noise: freq = 223.9 MHz     (87 %), step = 24.35 MHz    (1.85 %)
    noise: freq = 251.2 MHz   (88.9 %), step = 27.32 MHz    (1.85 %)
    noise: freq = 281.8 MHz   (90.7 %), step = 30.65 MHz    (1.85 %)
    noise: freq = 316.2 MHz   (92.6 %), step = 34.39 MHz    (1.85 %)
    noise: freq = 354.8 MHz   (94.4 %), step = 38.59 MHz    (1.85 %)
    noise: freq = 398.1 MHz   (96.3 %), step = 43.29 MHz    (1.85 %)
    noise: freq = 446.7 MHz   (98.1 %), step = 48.58 MHz    (1.85 %)
    noise: freq = 500 MHz      (100 %), step = 53.32 MHz    (1.85 %)
Accumulated DC solution time =            14.5841 ms.
Intrinsic noise analysis time =              80.7149 ms.
Total time required for noise analysis `noise': CPU = 20.776 ms, elapsed =
        95.331 ms, util. = 21.8%.
Time accumulated: CPU = 261.798 ms, elapsed = 562.599 ms.
Peak resident memory used = 207 Mbytes.


******************************************************
Sweep Analysis `acswp': gain_n = (-500e-03 -> 500e-03)
******************************************************

Opening the PSF file
        ./single_ended_cascode_current_mirror6421_0.2_7.0_0.2_19.0_0.27_8.0_0.29_7.0_0.1_5.0_0.21_13.0_0.22_7.0_0.29_17.0_0.52_0.23_0.06.raw/acswp_ac.sweep
        ...

++++++++++++++++++++++++++++++
acswp: gain_n = -500e-03 (0 %)
++++++++++++++++++++++++++++++
Time for acswp itNum=0: CPU = 617 us, elapsed = 1.65105 ms.
Time accumulated: CPU = 262.484 ms, elapsed = 564.318 ms.
Peak resident memory used = 207 Mbytes.


****************************************************
AC Analysis `acswp-000_ac': freq = (1 Hz -> 100 GHz)
****************************************************
Trying `homotopy = gmin'.
Homotopy: gmin, steps: 12
Convergence achieved in 209 iterations.
DC simulation time: CPU = 14.337 ms, elapsed = 14.39 ms.

Opening the PSF file
        ./single_ended_cascode_current_mirror6421_0.2_7.0_0.2_19.0_0.27_8.0_0.29_7.0_0.1_5.0_0.21_13.0_0.22_7.0_0.29_17.0_0.52_0.23_0.06.raw/acswp-000_ac.ac
        ...
    acswp-000_ac: freq = 1.995 Hz    (2.73 %), step = 410.4 mHz    (909 m%)
    acswp-000_ac: freq = 2.512 Hz    (3.64 %), step = 516.6 mHz    (909 m%)
    acswp-000_ac: freq = 3.162 Hz    (4.55 %), step = 650.4 mHz    (909 m%)
    acswp-000_ac: freq = 3.981 Hz    (5.45 %), step = 818.8 mHz    (909 m%)
    acswp-000_ac: freq = 5.012 Hz    (6.36 %), step = 1.031 Hz     (909 m%)
    acswp-000_ac: freq = 6.31 Hz     (7.27 %), step = 1.298 Hz     (909 m%)
    acswp-000_ac: freq = 7.943 Hz    (8.18 %), step = 1.634 Hz     (909 m%)
    acswp-000_ac: freq = 10 Hz       (9.09 %), step = 2.057 Hz     (909 m%)
    acswp-000_ac: freq = 12.59 Hz      (10 %), step = 2.589 Hz     (909 m%)
    acswp-000_ac: freq = 15.85 Hz    (10.9 %), step = 3.26 Hz      (909 m%)
    acswp-000_ac: freq = 19.95 Hz    (11.8 %), step = 4.104 Hz     (909 m%)
    acswp-000_ac: freq = 25.12 Hz    (12.7 %), step = 5.166 Hz     (909 m%)
    acswp-000_ac: freq = 31.62 Hz    (13.6 %), step = 6.504 Hz     (909 m%)
    acswp-000_ac: freq = 39.81 Hz    (14.5 %), step = 8.188 Hz     (909 m%)
    acswp-000_ac: freq = 50.12 Hz    (15.5 %), step = 10.31 Hz     (909 m%)
    acswp-000_ac: freq = 63.1 Hz     (16.4 %), step = 12.98 Hz     (909 m%)
    acswp-000_ac: freq = 79.43 Hz    (17.3 %), step = 16.34 Hz     (909 m%)
    acswp-000_ac: freq = 100 Hz      (18.2 %), step = 20.57 Hz     (909 m%)
    acswp-000_ac: freq = 125.9 Hz    (19.1 %), step = 25.89 Hz     (909 m%)
    acswp-000_ac: freq = 158.5 Hz      (20 %), step = 32.6 Hz      (909 m%)
    acswp-000_ac: freq = 199.5 Hz    (20.9 %), step = 41.04 Hz     (909 m%)
    acswp-000_ac: freq = 251.2 Hz    (21.8 %), step = 51.66 Hz     (909 m%)
    acswp-000_ac: freq = 316.2 Hz    (22.7 %), step = 65.04 Hz     (909 m%)
    acswp-000_ac: freq = 398.1 Hz    (23.6 %), step = 81.88 Hz     (909 m%)
    acswp-000_ac: freq = 501.2 Hz    (24.5 %), step = 103.1 Hz     (909 m%)
    acswp-000_ac: freq = 631 Hz      (25.5 %), step = 129.8 Hz     (909 m%)
    acswp-000_ac: freq = 794.3 Hz    (26.4 %), step = 163.4 Hz     (909 m%)
    acswp-000_ac: freq = 1 kHz       (27.3 %), step = 205.7 Hz     (909 m%)
    acswp-000_ac: freq = 1.259 kHz   (28.2 %), step = 258.9 Hz     (909 m%)
    acswp-000_ac: freq = 1.585 kHz   (29.1 %), step = 326 Hz       (909 m%)
    acswp-000_ac: freq = 1.995 kHz     (30 %), step = 410.4 Hz     (909 m%)
    acswp-000_ac: freq = 2.512 kHz   (30.9 %), step = 516.6 Hz     (909 m%)
    acswp-000_ac: freq = 3.162 kHz   (31.8 %), step = 650.4 Hz     (909 m%)
    acswp-000_ac: freq = 3.981 kHz   (32.7 %), step = 818.8 Hz     (909 m%)
    acswp-000_ac: freq = 5.012 kHz   (33.6 %), step = 1.031 kHz    (909 m%)
    acswp-000_ac: freq = 6.31 kHz    (34.5 %), step = 1.298 kHz    (909 m%)
    acswp-000_ac: freq = 7.943 kHz   (35.5 %), step = 1.634 kHz    (909 m%)
    acswp-000_ac: freq = 10 kHz      (36.4 %), step = 2.057 kHz    (909 m%)
    acswp-000_ac: freq = 12.59 kHz   (37.3 %), step = 2.589 kHz    (909 m%)
    acswp-000_ac: freq = 15.85 kHz   (38.2 %), step = 3.26 kHz     (909 m%)
    acswp-000_ac: freq = 19.95 kHz   (39.1 %), step = 4.104 kHz    (909 m%)
    acswp-000_ac: freq = 25.12 kHz     (40 %), step = 5.166 kHz    (909 m%)
    acswp-000_ac: freq = 31.62 kHz   (40.9 %), step = 6.504 kHz    (909 m%)
    acswp-000_ac: freq = 39.81 kHz   (41.8 %), step = 8.188 kHz    (909 m%)
    acswp-000_ac: freq = 50.12 kHz   (42.7 %), step = 10.31 kHz    (909 m%)
    acswp-000_ac: freq = 63.1 kHz    (43.6 %), step = 12.98 kHz    (909 m%)
    acswp-000_ac: freq = 79.43 kHz   (44.5 %), step = 16.34 kHz    (909 m%)
    acswp-000_ac: freq = 100 kHz     (45.5 %), step = 20.57 kHz    (909 m%)
    acswp-000_ac: freq = 125.9 kHz   (46.4 %), step = 25.89 kHz    (909 m%)
    acswp-000_ac: freq = 158.5 kHz   (47.3 %), step = 32.6 kHz     (909 m%)
    acswp-000_ac: freq = 199.5 kHz   (48.2 %), step = 41.04 kHz    (909 m%)
    acswp-000_ac: freq = 251.2 kHz   (49.1 %), step = 51.66 kHz    (909 m%)
    acswp-000_ac: freq = 316.2 kHz     (50 %), step = 65.04 kHz    (909 m%)
    acswp-000_ac: freq = 398.1 kHz   (50.9 %), step = 81.88 kHz    (909 m%)
    acswp-000_ac: freq = 501.2 kHz   (51.8 %), step = 103.1 kHz    (909 m%)
    acswp-000_ac: freq = 631 kHz     (52.7 %), step = 129.8 kHz    (909 m%)
    acswp-000_ac: freq = 794.3 kHz   (53.6 %), step = 163.4 kHz    (909 m%)
    acswp-000_ac: freq = 1 MHz       (54.5 %), step = 205.7 kHz    (909 m%)
    acswp-000_ac: freq = 1.259 MHz   (55.5 %), step = 258.9 kHz    (909 m%)
    acswp-000_ac: freq = 1.585 MHz   (56.4 %), step = 326 kHz      (909 m%)
    acswp-000_ac: freq = 1.995 MHz   (57.3 %), step = 410.4 kHz    (909 m%)
    acswp-000_ac: freq = 2.512 MHz   (58.2 %), step = 516.6 kHz    (909 m%)
    acswp-000_ac: freq = 3.162 MHz   (59.1 %), step = 650.4 kHz    (909 m%)
    acswp-000_ac: freq = 3.981 MHz     (60 %), step = 818.8 kHz    (909 m%)
    acswp-000_ac: freq = 5.012 MHz   (60.9 %), step = 1.031 MHz    (909 m%)
    acswp-000_ac: freq = 6.31 MHz    (61.8 %), step = 1.298 MHz    (909 m%)
    acswp-000_ac: freq = 7.943 MHz   (62.7 %), step = 1.634 MHz    (909 m%)
    acswp-000_ac: freq = 10 MHz      (63.6 %), step = 2.057 MHz    (909 m%)
    acswp-000_ac: freq = 12.59 MHz   (64.5 %), step = 2.589 MHz    (909 m%)
    acswp-000_ac: freq = 15.85 MHz   (65.5 %), step = 3.26 MHz     (909 m%)
    acswp-000_ac: freq = 19.95 MHz   (66.4 %), step = 4.104 MHz    (909 m%)
    acswp-000_ac: freq = 25.12 MHz   (67.3 %), step = 5.166 MHz    (909 m%)
    acswp-000_ac: freq = 31.62 MHz   (68.2 %), step = 6.504 MHz    (909 m%)
    acswp-000_ac: freq = 39.81 MHz   (69.1 %), step = 8.188 MHz    (909 m%)
    acswp-000_ac: freq = 50.12 MHz     (70 %), step = 10.31 MHz    (909 m%)
    acswp-000_ac: freq = 63.1 MHz    (70.9 %), step = 12.98 MHz    (909 m%)
    acswp-000_ac: freq = 79.43 MHz   (71.8 %), step = 16.34 MHz    (909 m%)
    acswp-000_ac: freq = 100 MHz     (72.7 %), step = 20.57 MHz    (909 m%)
    acswp-000_ac: freq = 125.9 MHz   (73.6 %), step = 25.89 MHz    (909 m%)
    acswp-000_ac: freq = 158.5 MHz   (74.5 %), step = 32.6 MHz     (909 m%)
    acswp-000_ac: freq = 199.5 MHz   (75.5 %), step = 41.04 MHz    (909 m%)
    acswp-000_ac: freq = 251.2 MHz   (76.4 %), step = 51.66 MHz    (909 m%)
    acswp-000_ac: freq = 316.2 MHz   (77.3 %), step = 65.04 MHz    (909 m%)
    acswp-000_ac: freq = 398.1 MHz   (78.2 %), step = 81.88 MHz    (909 m%)
    acswp-000_ac: freq = 501.2 MHz   (79.1 %), step = 103.1 MHz    (909 m%)
    acswp-000_ac: freq = 631 MHz       (80 %), step = 129.8 MHz    (909 m%)
    acswp-000_ac: freq = 794.3 MHz   (80.9 %), step = 163.4 MHz    (909 m%)
    acswp-000_ac: freq = 1 GHz       (81.8 %), step = 205.7 MHz    (909 m%)
    acswp-000_ac: freq = 1.259 GHz   (82.7 %), step = 258.9 MHz    (909 m%)
    acswp-000_ac: freq = 1.585 GHz   (83.6 %), step = 326 MHz      (909 m%)
    acswp-000_ac: freq = 1.995 GHz   (84.5 %), step = 410.4 MHz    (909 m%)
    acswp-000_ac: freq = 2.512 GHz   (85.5 %), step = 516.6 MHz    (909 m%)
    acswp-000_ac: freq = 3.162 GHz   (86.4 %), step = 650.4 MHz    (909 m%)
    acswp-000_ac: freq = 3.981 GHz   (87.3 %), step = 818.8 MHz    (909 m%)
    acswp-000_ac: freq = 5.012 GHz   (88.2 %), step = 1.031 GHz    (909 m%)
    acswp-000_ac: freq = 6.31 GHz    (89.1 %), step = 1.298 GHz    (909 m%)
    acswp-000_ac: freq = 7.943 GHz     (90 %), step = 1.634 GHz    (909 m%)
    acswp-000_ac: freq = 10 GHz      (90.9 %), step = 2.057 GHz    (909 m%)
    acswp-000_ac: freq = 12.59 GHz   (91.8 %), step = 2.589 GHz    (909 m%)
    acswp-000_ac: freq = 15.85 GHz   (92.7 %), step = 3.26 GHz     (909 m%)
    acswp-000_ac: freq = 19.95 GHz   (93.6 %), step = 4.104 GHz    (909 m%)
    acswp-000_ac: freq = 25.12 GHz   (94.5 %), step = 5.166 GHz    (909 m%)
    acswp-000_ac: freq = 31.62 GHz   (95.5 %), step = 6.504 GHz    (909 m%)
    acswp-000_ac: freq = 39.81 GHz   (96.4 %), step = 8.188 GHz    (909 m%)
    acswp-000_ac: freq = 50.12 GHz   (97.3 %), step = 10.31 GHz    (909 m%)
    acswp-000_ac: freq = 63.1 GHz    (98.2 %), step = 12.98 GHz    (909 m%)
    acswp-000_ac: freq = 79.43 GHz   (99.1 %), step = 16.34 GHz    (909 m%)
    acswp-000_ac: freq = 100 GHz      (100 %), step = 20.57 GHz    (909 m%)
Accumulated DC solution time =            14.426 ms.
Intrinsic ac analysis time =              33.2448 ms.
Total time required for ac analysis `acswp-000_ac': CPU = 21.358 ms, elapsed =
        47.6909 ms, util. = 44.8%.
Time accumulated: CPU = 284.545 ms, elapsed = 634.717 ms.
Peak resident memory used = 209 Mbytes.


+++++++++++++++++++++++++++++++
acswp: gain_n = 500e-03 (100 %)
+++++++++++++++++++++++++++++++
Time for acswp itNum=1: CPU = 950 us, elapsed = 977.993 us.
Time accumulated: CPU = 285.551 ms, elapsed = 635.751 ms.
Peak resident memory used = 209 Mbytes.


****************************************************
AC Analysis `acswp-001_ac': freq = (1 Hz -> 100 GHz)
****************************************************
Trying `homotopy = gmin'.
Homotopy: gmin, steps: 12

Notice from spectre during DC analysis, during AC analysis `acswp-001_ac',
        during Sweep analysis `acswp'.
    Bad pivoting is found during DC analysis. Option dc_pivot_check=yes is
        recommended for possible improvement of convergence.

Convergence achieved in 209 iterations.
DC simulation time: CPU = 15.281 ms, elapsed = 15.3439 ms.

Opening the PSF file
        ./single_ended_cascode_current_mirror6421_0.2_7.0_0.2_19.0_0.27_8.0_0.29_7.0_0.1_5.0_0.21_13.0_0.22_7.0_0.29_17.0_0.52_0.23_0.06.raw/acswp-001_ac.ac
        ...
    acswp-001_ac: freq = 1.995 Hz    (2.73 %), step = 410.4 mHz    (909 m%)
    acswp-001_ac: freq = 2.512 Hz    (3.64 %), step = 516.6 mHz    (909 m%)
    acswp-001_ac: freq = 3.162 Hz    (4.55 %), step = 650.4 mHz    (909 m%)
    acswp-001_ac: freq = 3.981 Hz    (5.45 %), step = 818.8 mHz    (909 m%)
    acswp-001_ac: freq = 5.012 Hz    (6.36 %), step = 1.031 Hz     (909 m%)
    acswp-001_ac: freq = 6.31 Hz     (7.27 %), step = 1.298 Hz     (909 m%)
    acswp-001_ac: freq = 7.943 Hz    (8.18 %), step = 1.634 Hz     (909 m%)
    acswp-001_ac: freq = 10 Hz       (9.09 %), step = 2.057 Hz     (909 m%)
    acswp-001_ac: freq = 12.59 Hz      (10 %), step = 2.589 Hz     (909 m%)
    acswp-001_ac: freq = 15.85 Hz    (10.9 %), step = 3.26 Hz      (909 m%)
    acswp-001_ac: freq = 19.95 Hz    (11.8 %), step = 4.104 Hz     (909 m%)
    acswp-001_ac: freq = 25.12 Hz    (12.7 %), step = 5.166 Hz     (909 m%)
    acswp-001_ac: freq = 31.62 Hz    (13.6 %), step = 6.504 Hz     (909 m%)
    acswp-001_ac: freq = 39.81 Hz    (14.5 %), step = 8.188 Hz     (909 m%)
    acswp-001_ac: freq = 50.12 Hz    (15.5 %), step = 10.31 Hz     (909 m%)
    acswp-001_ac: freq = 63.1 Hz     (16.4 %), step = 12.98 Hz     (909 m%)
    acswp-001_ac: freq = 79.43 Hz    (17.3 %), step = 16.34 Hz     (909 m%)
    acswp-001_ac: freq = 100 Hz      (18.2 %), step = 20.57 Hz     (909 m%)
    acswp-001_ac: freq = 125.9 Hz    (19.1 %), step = 25.89 Hz     (909 m%)
    acswp-001_ac: freq = 158.5 Hz      (20 %), step = 32.6 Hz      (909 m%)
    acswp-001_ac: freq = 199.5 Hz    (20.9 %), step = 41.04 Hz     (909 m%)
    acswp-001_ac: freq = 251.2 Hz    (21.8 %), step = 51.66 Hz     (909 m%)
    acswp-001_ac: freq = 316.2 Hz    (22.7 %), step = 65.04 Hz     (909 m%)
    acswp-001_ac: freq = 398.1 Hz    (23.6 %), step = 81.88 Hz     (909 m%)
    acswp-001_ac: freq = 501.2 Hz    (24.5 %), step = 103.1 Hz     (909 m%)
    acswp-001_ac: freq = 631 Hz      (25.5 %), step = 129.8 Hz     (909 m%)
    acswp-001_ac: freq = 794.3 Hz    (26.4 %), step = 163.4 Hz     (909 m%)
    acswp-001_ac: freq = 1 kHz       (27.3 %), step = 205.7 Hz     (909 m%)
    acswp-001_ac: freq = 1.259 kHz   (28.2 %), step = 258.9 Hz     (909 m%)
    acswp-001_ac: freq = 1.585 kHz   (29.1 %), step = 326 Hz       (909 m%)
    acswp-001_ac: freq = 1.995 kHz     (30 %), step = 410.4 Hz     (909 m%)
    acswp-001_ac: freq = 2.512 kHz   (30.9 %), step = 516.6 Hz     (909 m%)
    acswp-001_ac: freq = 3.162 kHz   (31.8 %), step = 650.4 Hz     (909 m%)
    acswp-001_ac: freq = 3.981 kHz   (32.7 %), step = 818.8 Hz     (909 m%)
    acswp-001_ac: freq = 5.012 kHz   (33.6 %), step = 1.031 kHz    (909 m%)
    acswp-001_ac: freq = 6.31 kHz    (34.5 %), step = 1.298 kHz    (909 m%)
    acswp-001_ac: freq = 7.943 kHz   (35.5 %), step = 1.634 kHz    (909 m%)
    acswp-001_ac: freq = 10 kHz      (36.4 %), step = 2.057 kHz    (909 m%)
    acswp-001_ac: freq = 12.59 kHz   (37.3 %), step = 2.589 kHz    (909 m%)
    acswp-001_ac: freq = 15.85 kHz   (38.2 %), step = 3.26 kHz     (909 m%)
    acswp-001_ac: freq = 19.95 kHz   (39.1 %), step = 4.104 kHz    (909 m%)
    acswp-001_ac: freq = 25.12 kHz     (40 %), step = 5.166 kHz    (909 m%)
    acswp-001_ac: freq = 31.62 kHz   (40.9 %), step = 6.504 kHz    (909 m%)
    acswp-001_ac: freq = 39.81 kHz   (41.8 %), step = 8.188 kHz    (909 m%)
    acswp-001_ac: freq = 50.12 kHz   (42.7 %), step = 10.31 kHz    (909 m%)
    acswp-001_ac: freq = 63.1 kHz    (43.6 %), step = 12.98 kHz    (909 m%)
    acswp-001_ac: freq = 79.43 kHz   (44.5 %), step = 16.34 kHz    (909 m%)
    acswp-001_ac: freq = 100 kHz     (45.5 %), step = 20.57 kHz    (909 m%)
    acswp-001_ac: freq = 125.9 kHz   (46.4 %), step = 25.89 kHz    (909 m%)
    acswp-001_ac: freq = 158.5 kHz   (47.3 %), step = 32.6 kHz     (909 m%)
    acswp-001_ac: freq = 199.5 kHz   (48.2 %), step = 41.04 kHz    (909 m%)
    acswp-001_ac: freq = 251.2 kHz   (49.1 %), step = 51.66 kHz    (909 m%)
    acswp-001_ac: freq = 316.2 kHz     (50 %), step = 65.04 kHz    (909 m%)
    acswp-001_ac: freq = 398.1 kHz   (50.9 %), step = 81.88 kHz    (909 m%)
    acswp-001_ac: freq = 501.2 kHz   (51.8 %), step = 103.1 kHz    (909 m%)
    acswp-001_ac: freq = 631 kHz     (52.7 %), step = 129.8 kHz    (909 m%)
    acswp-001_ac: freq = 794.3 kHz   (53.6 %), step = 163.4 kHz    (909 m%)
    acswp-001_ac: freq = 1 MHz       (54.5 %), step = 205.7 kHz    (909 m%)
    acswp-001_ac: freq = 1.259 MHz   (55.5 %), step = 258.9 kHz    (909 m%)
    acswp-001_ac: freq = 1.585 MHz   (56.4 %), step = 326 kHz      (909 m%)
    acswp-001_ac: freq = 1.995 MHz   (57.3 %), step = 410.4 kHz    (909 m%)
    acswp-001_ac: freq = 2.512 MHz   (58.2 %), step = 516.6 kHz    (909 m%)
    acswp-001_ac: freq = 3.162 MHz   (59.1 %), step = 650.4 kHz    (909 m%)
    acswp-001_ac: freq = 3.981 MHz     (60 %), step = 818.8 kHz    (909 m%)
    acswp-001_ac: freq = 5.012 MHz   (60.9 %), step = 1.031 MHz    (909 m%)
    acswp-001_ac: freq = 6.31 MHz    (61.8 %), step = 1.298 MHz    (909 m%)
    acswp-001_ac: freq = 7.943 MHz   (62.7 %), step = 1.634 MHz    (909 m%)
    acswp-001_ac: freq = 10 MHz      (63.6 %), step = 2.057 MHz    (909 m%)
    acswp-001_ac: freq = 12.59 MHz   (64.5 %), step = 2.589 MHz    (909 m%)
    acswp-001_ac: freq = 15.85 MHz   (65.5 %), step = 3.26 MHz     (909 m%)
    acswp-001_ac: freq = 19.95 MHz   (66.4 %), step = 4.104 MHz    (909 m%)
    acswp-001_ac: freq = 25.12 MHz   (67.3 %), step = 5.166 MHz    (909 m%)
    acswp-001_ac: freq = 31.62 MHz   (68.2 %), step = 6.504 MHz    (909 m%)
    acswp-001_ac: freq = 39.81 MHz   (69.1 %), step = 8.188 MHz    (909 m%)
    acswp-001_ac: freq = 50.12 MHz     (70 %), step = 10.31 MHz    (909 m%)
    acswp-001_ac: freq = 63.1 MHz    (70.9 %), step = 12.98 MHz    (909 m%)
    acswp-001_ac: freq = 79.43 MHz   (71.8 %), step = 16.34 MHz    (909 m%)
    acswp-001_ac: freq = 100 MHz     (72.7 %), step = 20.57 MHz    (909 m%)
    acswp-001_ac: freq = 125.9 MHz   (73.6 %), step = 25.89 MHz    (909 m%)
    acswp-001_ac: freq = 158.5 MHz   (74.5 %), step = 32.6 MHz     (909 m%)
    acswp-001_ac: freq = 199.5 MHz   (75.5 %), step = 41.04 MHz    (909 m%)
    acswp-001_ac: freq = 251.2 MHz   (76.4 %), step = 51.66 MHz    (909 m%)
    acswp-001_ac: freq = 316.2 MHz   (77.3 %), step = 65.04 MHz    (909 m%)
    acswp-001_ac: freq = 398.1 MHz   (78.2 %), step = 81.88 MHz    (909 m%)
    acswp-001_ac: freq = 501.2 MHz   (79.1 %), step = 103.1 MHz    (909 m%)
    acswp-001_ac: freq = 631 MHz       (80 %), step = 129.8 MHz    (909 m%)
    acswp-001_ac: freq = 794.3 MHz   (80.9 %), step = 163.4 MHz    (909 m%)
    acswp-001_ac: freq = 1 GHz       (81.8 %), step = 205.7 MHz    (909 m%)
    acswp-001_ac: freq = 1.259 GHz   (82.7 %), step = 258.9 MHz    (909 m%)
    acswp-001_ac: freq = 1.585 GHz   (83.6 %), step = 326 MHz      (909 m%)
    acswp-001_ac: freq = 1.995 GHz   (84.5 %), step = 410.4 MHz    (909 m%)
    acswp-001_ac: freq = 2.512 GHz   (85.5 %), step = 516.6 MHz    (909 m%)
    acswp-001_ac: freq = 3.162 GHz   (86.4 %), step = 650.4 MHz    (909 m%)
    acswp-001_ac: freq = 3.981 GHz   (87.3 %), step = 818.8 MHz    (909 m%)
    acswp-001_ac: freq = 5.012 GHz   (88.2 %), step = 1.031 GHz    (909 m%)
    acswp-001_ac: freq = 6.31 GHz    (89.1 %), step = 1.298 GHz    (909 m%)
    acswp-001_ac: freq = 7.943 GHz     (90 %), step = 1.634 GHz    (909 m%)
    acswp-001_ac: freq = 10 GHz      (90.9 %), step = 2.057 GHz    (909 m%)
    acswp-001_ac: freq = 12.59 GHz   (91.8 %), step = 2.589 GHz    (909 m%)
    acswp-001_ac: freq = 15.85 GHz   (92.7 %), step = 3.26 GHz     (909 m%)
    acswp-001_ac: freq = 19.95 GHz   (93.6 %), step = 4.104 GHz    (909 m%)
    acswp-001_ac: freq = 25.12 GHz   (94.5 %), step = 5.166 GHz    (909 m%)
    acswp-001_ac: freq = 31.62 GHz   (95.5 %), step = 6.504 GHz    (909 m%)
    acswp-001_ac: freq = 39.81 GHz   (96.4 %), step = 8.188 GHz    (909 m%)
    acswp-001_ac: freq = 50.12 GHz   (97.3 %), step = 10.31 GHz    (909 m%)
    acswp-001_ac: freq = 63.1 GHz    (98.2 %), step = 12.98 GHz    (909 m%)
    acswp-001_ac: freq = 79.43 GHz   (99.1 %), step = 16.34 GHz    (909 m%)
    acswp-001_ac: freq = 100 GHz      (100 %), step = 20.57 GHz    (909 m%)
Accumulated DC solution time =            15.3868 ms.
Intrinsic ac analysis time =              36.1612 ms.
Total time required for ac analysis `acswp-001_ac': CPU = 21.96 ms, elapsed =
        51.723 ms, util. = 42.5%.
Time accumulated: CPU = 307.934 ms, elapsed = 758.218 ms.
Peak resident memory used = 209 Mbytes.

Total time required for sweep analysis `acswp': CPU = 46.177 ms, elapsed =
        198.411 ms, util. = 23.3%.
Time accumulated: CPU = 308.247 ms, elapsed = 761.28 ms.
Peak resident memory used = 209 Mbytes.


*********************************************************
Sweep Analysis `dcswp': dc_offset = (-500e-03 -> 500e-03)
*********************************************************

Opening the PSF file
        ./single_ended_cascode_current_mirror6421_0.2_7.0_0.2_19.0_0.27_8.0_0.29_7.0_0.1_5.0_0.21_13.0_0.22_7.0_0.29_17.0_0.52_0.23_0.06.raw/dcswp_dcOp.sweep
        ...

+++++++++++++++++++++++++++++++++
dcswp: dc_offset = -500e-03 (0 %)
+++++++++++++++++++++++++++++++++
Time for dcswp itNum=0: CPU = 1.169 ms, elapsed = 2.32911 ms.
Time accumulated: CPU = 309.468 ms, elapsed = 763.662 ms.
Peak resident memory used = 209 Mbytes.


****************************
DC Analysis `dcswp-000_dcOp'
****************************

Opening the PSF file
        ./single_ended_cascode_current_mirror6421_0.2_7.0_0.2_19.0_0.27_8.0_0.29_7.0_0.1_5.0_0.21_13.0_0.22_7.0_0.29_17.0_0.52_0.23_0.06.raw/dcswp-000_dcOp.dc
        ...
Important parameter values:
    reltol = 1e-03
    abstol(V) = 1 uV
    abstol(I) = 1 pA
    temp = 27 C
    tnom = 27 C
    tempeffects = all
    gmindc = 1 pS
Trying `homotopy = gmin'.
Homotopy: gmin, steps: 12

Notice from spectre at dc_offset = -500e-03 during DC analysis
        `dcswp-000_dcOp', during Sweep analysis `dcswp'.
    GminDC = 1 pS is large enough to noticeably affect the DC solution.
        dV(MM3:int_di) = -25.5514 mV
        Use the `gmin_check' option to eliminate or expand this report.
    Bad pivoting is found during DC analysis. Option dc_pivot_check=yes is
        recommended for possible improvement of convergence.

writing solution to
        /homes/natelgrw/Documents/titan_foundation_model/results/designs_single_ended_cascode_current_mirror6421/single_ended_cascode_current_mirror6421_0.2_7.0_0.2_19.0_0.27_8.0_0.29_7.0_0.1_5.0_0.21_13.0_0.22_7.0_0.29_17.0_0.52_0.23_0.06/spectre.dc

Maximum value achieved for any signal of each quantity: 
V: V(vdd!) = 1 V
I: I(V0:p) = 3.034 nA
Convergence achieved in 200 iterations.
DC simulation time: CPU = 16.105 ms, elapsed = 119.773 ms.
Total time required for dc analysis `dcswp-000_dcOp': CPU = 16.378 ms, elapsed
        = 120.043 ms, util. = 13.6%.
Time accumulated: CPU = 326.703 ms, elapsed = 951.309 ms.
Peak resident memory used = 209 Mbytes.


++++++++++++++++++++++++++++++++++++
dcswp: dc_offset = -499e-03 (100 m%)
++++++++++++++++++++++++++++++++++++
Time for dcswp itNum=1: CPU = 241 us, elapsed = 241.995 us.
Time accumulated: CPU = 327.011 ms, elapsed = 951.618 ms.
Peak resident memory used = 209 Mbytes.


****************************
DC Analysis `dcswp-001_dcOp'
****************************

Opening the PSF file
        ./single_ended_cascode_current_mirror6421_0.2_7.0_0.2_19.0_0.27_8.0_0.29_7.0_0.1_5.0_0.21_13.0_0.22_7.0_0.29_17.0_0.52_0.23_0.06.raw/dcswp-001_dcOp.dc
        ...
Important parameter values:
    reltol = 1e-03
    abstol(V) = 1 uV
    abstol(I) = 1 pA
    temp = 27 C
    tnom = 27 C
    tempeffects = all
    gmindc = 1 pS
Trying `homotopy = gmin'.
Homotopy: gmin, steps: 12

Notice from spectre at dc_offset = -499e-03 during DC analysis
        `dcswp-001_dcOp', during Sweep analysis `dcswp'.
    GminDC = 1 pS is large enough to noticeably affect the DC solution.
        dV(MM3:int_di) = -25.5514 mV
        Use the `gmin_check' option to eliminate or expand this report.
    Bad pivoting is found during DC analysis. Option dc_pivot_check=yes is
        recommended for possible improvement of convergence.

writing solution to
        /homes/natelgrw/Documents/titan_foundation_model/results/designs_single_ended_cascode_current_mirror6421/single_ended_cascode_current_mirror6421_0.2_7.0_0.2_19.0_0.27_8.0_0.29_7.0_0.1_5.0_0.21_13.0_0.22_7.0_0.29_17.0_0.52_0.23_0.06/spectre.dc

Maximum value achieved for any signal of each quantity: 
V: V(vdd!) = 1 V
I: I(V0:p) = 3.034 nA
Convergence achieved in 200 iterations.
DC simulation time: CPU = 15.756 ms, elapsed = 91.9418 ms.
Total time required for dc analysis `dcswp-001_dcOp': CPU = 15.811 ms, elapsed
        = 91.996 ms, util. = 17.2%.
Time accumulated: CPU = 343.304 ms, elapsed = 1.0483 s.
Peak resident memory used = 209 Mbytes.


++++++++++++++++++++++++++++++++++++
dcswp: dc_offset = -498e-03 (200 m%)
++++++++++++++++++++++++++++++++++++
Time for dcswp itNum=2: CPU = 257 us, elapsed = 257.015 us.
Time accumulated: CPU = 343.682 ms, elapsed = 1.04868 s.
Peak resident memory used = 209 Mbytes.


****************************
DC Analysis `dcswp-002_dcOp'
****************************

Opening the PSF file
        ./single_ended_cascode_current_mirror6421_0.2_7.0_0.2_19.0_0.27_8.0_0.29_7.0_0.1_5.0_0.21_13.0_0.22_7.0_0.29_17.0_0.52_0.23_0.06.raw/dcswp-002_dcOp.dc
        ...
Important parameter values:
    reltol = 1e-03
    abstol(V) = 1 uV
    abstol(I) = 1 pA
    temp = 27 C
    tnom = 27 C
    tempeffects = all
    gmindc = 1 pS
Trying `homotopy = gmin'.
Homotopy: gmin, steps: 12

Notice from spectre at dc_offset = -498e-03 during DC analysis
        `dcswp-002_dcOp', during Sweep analysis `dcswp'.
    GminDC = 1 pS is large enough to noticeably affect the DC solution.
        dV(MM3:int_di) = -25.5514 mV
        Use the `gmin_check' option to eliminate or expand this report.
    Bad pivoting is found during DC analysis. Option dc_pivot_check=yes is
        recommended for possible improvement of convergence.

writing solution to
        /homes/natelgrw/Documents/titan_foundation_model/results/designs_single_ended_cascode_current_mirror6421/single_ended_cascode_current_mirror6421_0.2_7.0_0.2_19.0_0.27_8.0_0.29_7.0_0.1_5.0_0.21_13.0_0.22_7.0_0.29_17.0_0.52_0.23_0.06/spectre.dc

Maximum value achieved for any signal of each quantity: 
V: V(vdd!) = 1 V
I: I(V0:p) = 3.033 nA
Convergence achieved in 200 iterations.
DC simulation time: CPU = 16.125 ms, elapsed = 23.1719 ms.
Total time required for dc analysis `dcswp-002_dcOp': CPU = 16.176 ms, elapsed
        = 23.222 ms, util. = 69.7%.
Time accumulated: CPU = 360.214 ms, elapsed = 1.07643 s.
Peak resident memory used = 209 Mbytes.


++++++++++++++++++++++++++++++++++++
dcswp: dc_offset = -497e-03 (300 m%)
++++++++++++++++++++++++++++++++++++
Time for dcswp itNum=3: CPU = 114 us, elapsed = 113.01 us.
Time accumulated: CPU = 360.423 ms, elapsed = 1.07664 s.
Peak resident memory used = 209 Mbytes.


****************************
DC Analysis `dcswp-003_dcOp'
****************************

Opening the PSF file
        ./single_ended_cascode_current_mirror6421_0.2_7.0_0.2_19.0_0.27_8.0_0.29_7.0_0.1_5.0_0.21_13.0_0.22_7.0_0.29_17.0_0.52_0.23_0.06.raw/dcswp-003_dcOp.dc
        ...
Important parameter values:
    reltol = 1e-03
    abstol(V) = 1 uV
    abstol(I) = 1 pA
    temp = 27 C
    tnom = 27 C
    tempeffects = all
    gmindc = 1 pS
Trying `homotopy = gmin'.
Homotopy: gmin, steps: 12

Notice from spectre at dc_offset = -497e-03 during DC analysis
        `dcswp-003_dcOp', during Sweep analysis `dcswp'.
    GminDC = 1 pS is large enough to noticeably affect the DC solution.
        dV(MM3:int_di) = -25.5514 mV
        Use the `gmin_check' option to eliminate or expand this report.
    Bad pivoting is found during DC analysis. Option dc_pivot_check=yes is
        recommended for possible improvement of convergence.

writing solution to
        /homes/natelgrw/Documents/titan_foundation_model/results/designs_single_ended_cascode_current_mirror6421/single_ended_cascode_current_mirror6421_0.2_7.0_0.2_19.0_0.27_8.0_0.29_7.0_0.1_5.0_0.21_13.0_0.22_7.0_0.29_17.0_0.52_0.23_0.06/spectre.dc

Maximum value achieved for any signal of each quantity: 
V: V(vdd!) = 1 V
I: I(V0:p) = 3.033 nA
Convergence achieved in 200 iterations.
DC simulation time: CPU = 15.919 ms, elapsed = 22.8138 ms.
Total time required for dc analysis `dcswp-003_dcOp': CPU = 15.982 ms, elapsed
        = 22.877 ms, util. = 69.9%.
Time accumulated: CPU = 376.781 ms, elapsed = 1.13929 s.
Peak resident memory used = 209 Mbytes.


++++++++++++++++++++++++++++++++++++
dcswp: dc_offset = -496e-03 (400 m%)
++++++++++++++++++++++++++++++++++++
Time for dcswp itNum=4: CPU = 131 us, elapsed = 130.892 us.
Time accumulated: CPU = 376.978 ms, elapsed = 1.13949 s.
Peak resident memory used = 209 Mbytes.


****************************
DC Analysis `dcswp-004_dcOp'
****************************

Opening the PSF file
        ./single_ended_cascode_current_mirror6421_0.2_7.0_0.2_19.0_0.27_8.0_0.29_7.0_0.1_5.0_0.21_13.0_0.22_7.0_0.29_17.0_0.52_0.23_0.06.raw/dcswp-004_dcOp.dc
        ...
Important parameter values:
    reltol = 1e-03
    abstol(V) = 1 uV
    abstol(I) = 1 pA
    temp = 27 C
    tnom = 27 C
    tempeffects = all
    gmindc = 1 pS
Trying `homotopy = gmin'.
Homotopy: gmin, steps: 12

Notice from spectre at dc_offset = -496e-03 during DC analysis
        `dcswp-004_dcOp', during Sweep analysis `dcswp'.
    GminDC = 1 pS is large enough to noticeably affect the DC solution.
        dV(MM3:int_di) = -25.5513 mV
        Use the `gmin_check' option to eliminate or expand this report.
    Bad pivoting is found during DC analysis. Option dc_pivot_check=yes is
        recommended for possible improvement of convergence.

writing solution to
        /homes/natelgrw/Documents/titan_foundation_model/results/designs_single_ended_cascode_current_mirror6421/single_ended_cascode_current_mirror6421_0.2_7.0_0.2_19.0_0.27_8.0_0.29_7.0_0.1_5.0_0.21_13.0_0.22_7.0_0.29_17.0_0.52_0.23_0.06/spectre.dc

Maximum value achieved for any signal of each quantity: 
V: V(vdd!) = 1 V
I: I(V0:p) = 3.033 nA
Convergence achieved in 200 iterations.
DC simulation time: CPU = 15.24 ms, elapsed = 21.929 ms.
Total time required for dc analysis `dcswp-004_dcOp': CPU = 15.285 ms, elapsed
        = 21.9738 ms, util. = 69.6%.
Time accumulated: CPU = 392.656 ms, elapsed = 1.16564 s.
Peak resident memory used = 209 Mbytes.


++++++++++++++++++++++++++++++++++++
dcswp: dc_offset = -495e-03 (500 m%)
++++++++++++++++++++++++++++++++++++
Time for dcswp itNum=5: CPU = 89 us, elapsed = 90.1222 us.
Time accumulated: CPU = 392.802 ms, elapsed = 1.16579 s.
Peak resident memory used = 209 Mbytes.


****************************
DC Analysis `dcswp-005_dcOp'
****************************

Opening the PSF file
        ./single_ended_cascode_current_mirror6421_0.2_7.0_0.2_19.0_0.27_8.0_0.29_7.0_0.1_5.0_0.21_13.0_0.22_7.0_0.29_17.0_0.52_0.23_0.06.raw/dcswp-005_dcOp.dc
        ...
Important parameter values:
    reltol = 1e-03
    abstol(V) = 1 uV
    abstol(I) = 1 pA
    temp = 27 C
    tnom = 27 C
    tempeffects = all
    gmindc = 1 pS
Trying `homotopy = gmin'.
Homotopy: gmin, steps: 12

Notice from spectre at dc_offset = -495e-03 during DC analysis
        `dcswp-005_dcOp', during Sweep analysis `dcswp'.
    GminDC = 1 pS is large enough to noticeably affect the DC solution.
        dV(MM3:int_di) = -25.5513 mV
        Use the `gmin_check' option to eliminate or expand this report.
    Bad pivoting is found during DC analysis. Option dc_pivot_check=yes is
        recommended for possible improvement of convergence.

writing solution to
        /homes/natelgrw/Documents/titan_foundation_model/results/designs_single_ended_cascode_current_mirror6421/single_ended_cascode_current_mirror6421_0.2_7.0_0.2_19.0_0.27_8.0_0.29_7.0_0.1_5.0_0.21_13.0_0.22_7.0_0.29_17.0_0.52_0.23_0.06/spectre.dc

Maximum value achieved for any signal of each quantity: 
V: V(vdd!) = 1 V
I: I(V0:p) = 3.032 nA
Convergence achieved in 200 iterations.
DC simulation time: CPU = 15.51 ms, elapsed = 27.5989 ms.
Total time required for dc analysis `dcswp-005_dcOp': CPU = 15.554 ms, elapsed
        = 27.642 ms, util. = 56.3%.
Time accumulated: CPU = 408.792 ms, elapsed = 1.19789 s.
Peak resident memory used = 209 Mbytes.


++++++++++++++++++++++++++++++++++++
dcswp: dc_offset = -494e-03 (600 m%)
++++++++++++++++++++++++++++++++++++
Time for dcswp itNum=6: CPU = 207 us, elapsed = 214.1 us.
Time accumulated: CPU = 409.128 ms, elapsed = 1.19824 s.
Peak resident memory used = 209 Mbytes.


****************************
DC Analysis `dcswp-006_dcOp'
****************************

Opening the PSF file
        ./single_ended_cascode_current_mirror6421_0.2_7.0_0.2_19.0_0.27_8.0_0.29_7.0_0.1_5.0_0.21_13.0_0.22_7.0_0.29_17.0_0.52_0.23_0.06.raw/dcswp-006_dcOp.dc
        ...
Important parameter values:
    reltol = 1e-03
    abstol(V) = 1 uV
    abstol(I) = 1 pA
    temp = 27 C
    tnom = 27 C
    tempeffects = all
    gmindc = 1 pS
Trying `homotopy = gmin'.
Homotopy: gmin, steps: 12

Notice from spectre at dc_offset = -494e-03 during DC analysis
        `dcswp-006_dcOp', during Sweep analysis `dcswp'.
    GminDC = 1 pS is large enough to noticeably affect the DC solution.
        dV(MM3:int_di) = -25.5513 mV
        Use the `gmin_check' option to eliminate or expand this report.
    Bad pivoting is found during DC analysis. Option dc_pivot_check=yes is
        recommended for possible improvement of convergence.

writing solution to
        /homes/natelgrw/Documents/titan_foundation_model/results/designs_single_ended_cascode_current_mirror6421/single_ended_cascode_current_mirror6421_0.2_7.0_0.2_19.0_0.27_8.0_0.29_7.0_0.1_5.0_0.21_13.0_0.22_7.0_0.29_17.0_0.52_0.23_0.06/spectre.dc

Maximum value achieved for any signal of each quantity: 
V: V(vdd!) = 1 V
I: I(V0:p) = 3.032 nA
Convergence achieved in 200 iterations.
DC simulation time: CPU = 15.211 ms, elapsed = 48.5158 ms.
Total time required for dc analysis `dcswp-006_dcOp': CPU = 15.258 ms, elapsed
        = 48.562 ms, util. = 31.4%.
Time accumulated: CPU = 424.933 ms, elapsed = 1.28979 s.
Peak resident memory used = 209 Mbytes.


++++++++++++++++++++++++++++++++++++
dcswp: dc_offset = -493e-03 (700 m%)
++++++++++++++++++++++++++++++++++++
Time for dcswp itNum=7: CPU = 101 us, elapsed = 118.971 us.
Time accumulated: CPU = 425.1 ms, elapsed = 1.28998 s.
Peak resident memory used = 209 Mbytes.


****************************
DC Analysis `dcswp-007_dcOp'
****************************

Opening the PSF file
        ./single_ended_cascode_current_mirror6421_0.2_7.0_0.2_19.0_0.27_8.0_0.29_7.0_0.1_5.0_0.21_13.0_0.22_7.0_0.29_17.0_0.52_0.23_0.06.raw/dcswp-007_dcOp.dc
        ...
Important parameter values:
    reltol = 1e-03
    abstol(V) = 1 uV
    abstol(I) = 1 pA
    temp = 27 C
    tnom = 27 C
    tempeffects = all
    gmindc = 1 pS
Trying `homotopy = gmin'.
Homotopy: gmin, steps: 12

Notice from spectre at dc_offset = -493e-03 during DC analysis
        `dcswp-007_dcOp', during Sweep analysis `dcswp'.
    GminDC = 1 pS is large enough to noticeably affect the DC solution.
        dV(MM3:int_di) = -25.5513 mV
        Use the `gmin_check' option to eliminate or expand this report.
    Bad pivoting is found during DC analysis. Option dc_pivot_check=yes is
        recommended for possible improvement of convergence.

writing solution to
        /homes/natelgrw/Documents/titan_foundation_model/results/designs_single_ended_cascode_current_mirror6421/single_ended_cascode_current_mirror6421_0.2_7.0_0.2_19.0_0.27_8.0_0.29_7.0_0.1_5.0_0.21_13.0_0.22_7.0_0.29_17.0_0.52_0.23_0.06/spectre.dc

Maximum value achieved for any signal of each quantity: 
V: V(vdd!) = 1 V
I: I(V0:p) = 3.032 nA
Convergence achieved in 200 iterations.
DC simulation time: CPU = 15.304 ms, elapsed = 168.202 ms.
Total time required for dc analysis `dcswp-007_dcOp': CPU = 15.367 ms, elapsed
        = 168.264 ms, util. = 9.13%.
Time accumulated: CPU = 440.882 ms, elapsed = 1.4622 s.
Peak resident memory used = 209 Mbytes.


++++++++++++++++++++++++++++++++++++
dcswp: dc_offset = -492e-03 (800 m%)
++++++++++++++++++++++++++++++++++++
Time for dcswp itNum=8: CPU = 114 us, elapsed = 114.918 us.
Time accumulated: CPU = 441.062 ms, elapsed = 1.46238 s.
Peak resident memory used = 209 Mbytes.


****************************
DC Analysis `dcswp-008_dcOp'
****************************

Opening the PSF file
        ./single_ended_cascode_current_mirror6421_0.2_7.0_0.2_19.0_0.27_8.0_0.29_7.0_0.1_5.0_0.21_13.0_0.22_7.0_0.29_17.0_0.52_0.23_0.06.raw/dcswp-008_dcOp.dc
        ...
Important parameter values:
    reltol = 1e-03
    abstol(V) = 1 uV
    abstol(I) = 1 pA
    temp = 27 C
    tnom = 27 C
    tempeffects = all
    gmindc = 1 pS
Trying `homotopy = gmin'.
Homotopy: gmin, steps: 12

Notice from spectre at dc_offset = -492e-03 during DC analysis
        `dcswp-008_dcOp', during Sweep analysis `dcswp'.
    GminDC = 1 pS is large enough to noticeably affect the DC solution.
        dV(MM3:int_di) = -25.5512 mV
        Use the `gmin_check' option to eliminate or expand this report.
    Bad pivoting is found during DC analysis. Option dc_pivot_check=yes is
        recommended for possible improvement of convergence.

writing solution to
        /homes/natelgrw/Documents/titan_foundation_model/results/designs_single_ended_cascode_current_mirror6421/single_ended_cascode_current_mirror6421_0.2_7.0_0.2_19.0_0.27_8.0_0.29_7.0_0.1_5.0_0.21_13.0_0.22_7.0_0.29_17.0_0.52_0.23_0.06/spectre.dc

Maximum value achieved for any signal of each quantity: 
V: V(vdd!) = 1 V
I: I(V0:p) = 3.031 nA
Convergence achieved in 200 iterations.
DC simulation time: CPU = 16.18 ms, elapsed = 22.9468 ms.
Total time required for dc analysis `dcswp-008_dcOp': CPU = 16.229 ms, elapsed
        = 22.994 ms, util. = 70.6%.
Time accumulated: CPU = 457.668 ms, elapsed = 1.56192 s.
Peak resident memory used = 209 Mbytes.


++++++++++++++++++++++++++++++++++++
dcswp: dc_offset = -491e-03 (900 m%)
++++++++++++++++++++++++++++++++++++
Time for dcswp itNum=9: CPU = 114 us, elapsed = 131.13 us.
Time accumulated: CPU = 457.843 ms, elapsed = 1.56211 s.
Peak resident memory used = 209 Mbytes.


****************************
DC Analysis `dcswp-009_dcOp'
****************************

Opening the PSF file
        ./single_ended_cascode_current_mirror6421_0.2_7.0_0.2_19.0_0.27_8.0_0.29_7.0_0.1_5.0_0.21_13.0_0.22_7.0_0.29_17.0_0.52_0.23_0.06.raw/dcswp-009_dcOp.dc
        ...
Important parameter values:
    reltol = 1e-03
    abstol(V) = 1 uV
    abstol(I) = 1 pA
    temp = 27 C
    tnom = 27 C
    tempeffects = all
    gmindc = 1 pS
Trying `homotopy = gmin'.
Homotopy: gmin, steps: 12

Notice from spectre at dc_offset = -491e-03 during DC analysis
        `dcswp-009_dcOp', during Sweep analysis `dcswp'.
    GminDC = 1 pS is large enough to noticeably affect the DC solution.
        dV(MM3:int_di) = -25.5512 mV
        Use the `gmin_check' option to eliminate or expand this report.
    Bad pivoting is found during DC analysis. Option dc_pivot_check=yes is
        recommended for possible improvement of convergence.

writing solution to
        /homes/natelgrw/Documents/titan_foundation_model/results/designs_single_ended_cascode_current_mirror6421/single_ended_cascode_current_mirror6421_0.2_7.0_0.2_19.0_0.27_8.0_0.29_7.0_0.1_5.0_0.21_13.0_0.22_7.0_0.29_17.0_0.52_0.23_0.06/spectre.dc

Maximum value achieved for any signal of each quantity: 
V: V(vdd!) = 1 V
I: I(V0:p) = 3.031 nA
Convergence achieved in 200 iterations.
DC simulation time: CPU = 14.824 ms, elapsed = 21.3101 ms.
Total time required for dc analysis `dcswp-009_dcOp': CPU = 14.871 ms, elapsed
        = 21.3559 ms, util. = 69.6%.
Time accumulated: CPU = 473.09 ms, elapsed = 1.58825 s.
Peak resident memory used = 209 Mbytes.


+++++++++++++++++++++++++++++++++
dcswp: dc_offset = -490e-03 (1 %)
+++++++++++++++++++++++++++++++++
Time for dcswp itNum=10: CPU = 108 us, elapsed = 109.196 us.
Time accumulated: CPU = 473.26 ms, elapsed = 1.58842 s.
Peak resident memory used = 209 Mbytes.


****************************
DC Analysis `dcswp-010_dcOp'
****************************

Opening the PSF file
        ./single_ended_cascode_current_mirror6421_0.2_7.0_0.2_19.0_0.27_8.0_0.29_7.0_0.1_5.0_0.21_13.0_0.22_7.0_0.29_17.0_0.52_0.23_0.06.raw/dcswp-010_dcOp.dc
        ...
Important parameter values:
    reltol = 1e-03
    abstol(V) = 1 uV
    abstol(I) = 1 pA
    temp = 27 C
    tnom = 27 C
    tempeffects = all
    gmindc = 1 pS
Trying `homotopy = gmin'.
Homotopy: gmin, steps: 12

Notice from spectre at dc_offset = -490e-03 during DC analysis
        `dcswp-010_dcOp', during Sweep analysis `dcswp'.
    GminDC = 1 pS is large enough to noticeably affect the DC solution.
        dV(MM3:int_di) = -25.5512 mV
        Use the `gmin_check' option to eliminate or expand this report.
    Bad pivoting is found during DC analysis. Option dc_pivot_check=yes is
        recommended for possible improvement of convergence.

writing solution to
        /homes/natelgrw/Documents/titan_foundation_model/results/designs_single_ended_cascode_current_mirror6421/single_ended_cascode_current_mirror6421_0.2_7.0_0.2_19.0_0.27_8.0_0.29_7.0_0.1_5.0_0.21_13.0_0.22_7.0_0.29_17.0_0.52_0.23_0.06/spectre.dc

Maximum value achieved for any signal of each quantity: 
V: V(vdd!) = 1 V
I: I(V0:p) = 3.031 nA
Convergence achieved in 200 iterations.
DC simulation time: CPU = 15.513 ms, elapsed = 23.252 ms.
Total time required for dc analysis `dcswp-010_dcOp': CPU = 15.591 ms, elapsed
        = 23.3309 ms, util. = 66.8%.
Time accumulated: CPU = 489.264 ms, elapsed = 1.61685 s.
Peak resident memory used = 209 Mbytes.


+++++++++++++++++++++++++++++++++++
dcswp: dc_offset = -489e-03 (1.1 %)
+++++++++++++++++++++++++++++++++++
Time for dcswp itNum=11: CPU = 94 us, elapsed = 93.9369 us.
Time accumulated: CPU = 489.418 ms, elapsed = 1.617 s.
Peak resident memory used = 209 Mbytes.


****************************
DC Analysis `dcswp-011_dcOp'
****************************

Opening the PSF file
        ./single_ended_cascode_current_mirror6421_0.2_7.0_0.2_19.0_0.27_8.0_0.29_7.0_0.1_5.0_0.21_13.0_0.22_7.0_0.29_17.0_0.52_0.23_0.06.raw/dcswp-011_dcOp.dc
        ...
Important parameter values:
    reltol = 1e-03
    abstol(V) = 1 uV
    abstol(I) = 1 pA
    temp = 27 C
    tnom = 27 C
    tempeffects = all
    gmindc = 1 pS
Trying `homotopy = gmin'.
Homotopy: gmin, steps: 12

Notice from spectre at dc_offset = -489e-03 during DC analysis
        `dcswp-011_dcOp', during Sweep analysis `dcswp'.
    GminDC = 1 pS is large enough to noticeably affect the DC solution.
        dV(MM3:int_di) = -25.5512 mV
        Use the `gmin_check' option to eliminate or expand this report.
    Bad pivoting is found during DC analysis. Option dc_pivot_check=yes is
        recommended for possible improvement of convergence.

writing solution to
        /homes/natelgrw/Documents/titan_foundation_model/results/designs_single_ended_cascode_current_mirror6421/single_ended_cascode_current_mirror6421_0.2_7.0_0.2_19.0_0.27_8.0_0.29_7.0_0.1_5.0_0.21_13.0_0.22_7.0_0.29_17.0_0.52_0.23_0.06/spectre.dc

Maximum value achieved for any signal of each quantity: 
V: V(vdd!) = 1 V
I: I(V0:p) = 3.03 nA
Convergence achieved in 200 iterations.
DC simulation time: CPU = 14.786 ms, elapsed = 50.0848 ms.
Total time required for dc analysis `dcswp-011_dcOp': CPU = 14.833 ms, elapsed
        = 50.1311 ms, util. = 29.6%.
Time accumulated: CPU = 504.699 ms, elapsed = 1.68308 s.
Peak resident memory used = 209 Mbytes.


+++++++++++++++++++++++++++++++++++
dcswp: dc_offset = -488e-03 (1.2 %)
+++++++++++++++++++++++++++++++++++
Time for dcswp itNum=12: CPU = 115 us, elapsed = 115.156 us.
Time accumulated: CPU = 504.904 ms, elapsed = 1.68329 s.
Peak resident memory used = 209 Mbytes.


****************************
DC Analysis `dcswp-012_dcOp'
****************************

Opening the PSF file
        ./single_ended_cascode_current_mirror6421_0.2_7.0_0.2_19.0_0.27_8.0_0.29_7.0_0.1_5.0_0.21_13.0_0.22_7.0_0.29_17.0_0.52_0.23_0.06.raw/dcswp-012_dcOp.dc
        ...
Important parameter values:
    reltol = 1e-03
    abstol(V) = 1 uV
    abstol(I) = 1 pA
    temp = 27 C
    tnom = 27 C
    tempeffects = all
    gmindc = 1 pS
Trying `homotopy = gmin'.
Homotopy: gmin, steps: 12

Notice from spectre at dc_offset = -488e-03 during DC analysis
        `dcswp-012_dcOp', during Sweep analysis `dcswp'.
    GminDC = 1 pS is large enough to noticeably affect the DC solution.
        dV(MM3:int_di) = -25.5511 mV
        Use the `gmin_check' option to eliminate or expand this report.
    Bad pivoting is found during DC analysis. Option dc_pivot_check=yes is
        recommended for possible improvement of convergence.

writing solution to
        /homes/natelgrw/Documents/titan_foundation_model/results/designs_single_ended_cascode_current_mirror6421/single_ended_cascode_current_mirror6421_0.2_7.0_0.2_19.0_0.27_8.0_0.29_7.0_0.1_5.0_0.21_13.0_0.22_7.0_0.29_17.0_0.52_0.23_0.06/spectre.dc

Maximum value achieved for any signal of each quantity: 
V: V(vdd!) = 1 V
I: I(V0:p) = 3.03 nA
Convergence achieved in 200 iterations.
DC simulation time: CPU = 15.769 ms, elapsed = 27.0951 ms.
Total time required for dc analysis `dcswp-012_dcOp': CPU = 15.814 ms, elapsed
        = 27.1399 ms, util. = 58.3%.
Time accumulated: CPU = 521.166 ms, elapsed = 1.71448 s.
Peak resident memory used = 209 Mbytes.


+++++++++++++++++++++++++++++++++++
dcswp: dc_offset = -487e-03 (1.3 %)
+++++++++++++++++++++++++++++++++++
Time for dcswp itNum=13: CPU = 93 us, elapsed = 94.1753 us.
Time accumulated: CPU = 521.319 ms, elapsed = 1.71464 s.
Peak resident memory used = 209 Mbytes.


****************************
DC Analysis `dcswp-013_dcOp'
****************************

Opening the PSF file
        ./single_ended_cascode_current_mirror6421_0.2_7.0_0.2_19.0_0.27_8.0_0.29_7.0_0.1_5.0_0.21_13.0_0.22_7.0_0.29_17.0_0.52_0.23_0.06.raw/dcswp-013_dcOp.dc
        ...
Important parameter values:
    reltol = 1e-03
    abstol(V) = 1 uV
    abstol(I) = 1 pA
    temp = 27 C
    tnom = 27 C
    tempeffects = all
    gmindc = 1 pS
Trying `homotopy = gmin'.
Homotopy: gmin, steps: 12

Notice from spectre at dc_offset = -487e-03 during DC analysis
        `dcswp-013_dcOp', during Sweep analysis `dcswp'.
    GminDC = 1 pS is large enough to noticeably affect the DC solution.
        dV(MM3:int_di) = -25.5511 mV
        Use the `gmin_check' option to eliminate or expand this report.
    Bad pivoting is found during DC analysis. Option dc_pivot_check=yes is
        recommended for possible improvement of convergence.

writing solution to
        /homes/natelgrw/Documents/titan_foundation_model/results/designs_single_ended_cascode_current_mirror6421/single_ended_cascode_current_mirror6421_0.2_7.0_0.2_19.0_0.27_8.0_0.29_7.0_0.1_5.0_0.21_13.0_0.22_7.0_0.29_17.0_0.52_0.23_0.06/spectre.dc

Maximum value achieved for any signal of each quantity: 
V: V(vdd!) = 1 V
I: I(V0:p) = 3.03 nA
Convergence achieved in 200 iterations.
DC simulation time: CPU = 15.097 ms, elapsed = 78.7649 ms.
Total time required for dc analysis `dcswp-013_dcOp': CPU = 15.14 ms, elapsed =
        78.8081 ms, util. = 19.2%.
Time accumulated: CPU = 536.813 ms, elapsed = 1.7976 s.
Peak resident memory used = 209 Mbytes.


+++++++++++++++++++++++++++++++++++
dcswp: dc_offset = -486e-03 (1.4 %)
+++++++++++++++++++++++++++++++++++
Time for dcswp itNum=14: CPU = 94 us, elapsed = 95.129 us.
Time accumulated: CPU = 536.967 ms, elapsed = 1.79776 s.
Peak resident memory used = 209 Mbytes.


****************************
DC Analysis `dcswp-014_dcOp'
****************************

Opening the PSF file
        ./single_ended_cascode_current_mirror6421_0.2_7.0_0.2_19.0_0.27_8.0_0.29_7.0_0.1_5.0_0.21_13.0_0.22_7.0_0.29_17.0_0.52_0.23_0.06.raw/dcswp-014_dcOp.dc
        ...
Important parameter values:
    reltol = 1e-03
    abstol(V) = 1 uV
    abstol(I) = 1 pA
    temp = 27 C
    tnom = 27 C
    tempeffects = all
    gmindc = 1 pS
Trying `homotopy = gmin'.
Homotopy: gmin, steps: 12

Notice from spectre at dc_offset = -486e-03 during DC analysis
        `dcswp-014_dcOp', during Sweep analysis `dcswp'.
    GminDC = 1 pS is large enough to noticeably affect the DC solution.
        dV(MM3:int_di) = -25.5511 mV
        Use the `gmin_check' option to eliminate or expand this report.
    Bad pivoting is found during DC analysis. Option dc_pivot_check=yes is
        recommended for possible improvement of convergence.

writing solution to
        /homes/natelgrw/Documents/titan_foundation_model/results/designs_single_ended_cascode_current_mirror6421/single_ended_cascode_current_mirror6421_0.2_7.0_0.2_19.0_0.27_8.0_0.29_7.0_0.1_5.0_0.21_13.0_0.22_7.0_0.29_17.0_0.52_0.23_0.06/spectre.dc

Maximum value achieved for any signal of each quantity: 
V: V(vdd!) = 1 V
I: I(V0:p) = 3.029 nA
Convergence achieved in 200 iterations.
DC simulation time: CPU = 15.39 ms, elapsed = 41.296 ms.
Total time required for dc analysis `dcswp-014_dcOp': CPU = 15.437 ms, elapsed
        = 41.3418 ms, util. = 37.3%.
Time accumulated: CPU = 552.88 ms, elapsed = 1.85454 s.
Peak resident memory used = 209 Mbytes.


+++++++++++++++++++++++++++++++++++
dcswp: dc_offset = -485e-03 (1.5 %)
+++++++++++++++++++++++++++++++++++
Time for dcswp itNum=15: CPU = 95 us, elapsed = 94.8906 us.
Time accumulated: CPU = 553.037 ms, elapsed = 1.85469 s.
Peak resident memory used = 209 Mbytes.


****************************
DC Analysis `dcswp-015_dcOp'
****************************

Opening the PSF file
        ./single_ended_cascode_current_mirror6421_0.2_7.0_0.2_19.0_0.27_8.0_0.29_7.0_0.1_5.0_0.21_13.0_0.22_7.0_0.29_17.0_0.52_0.23_0.06.raw/dcswp-015_dcOp.dc
        ...
Important parameter values:
    reltol = 1e-03
    abstol(V) = 1 uV
    abstol(I) = 1 pA
    temp = 27 C
    tnom = 27 C
    tempeffects = all
    gmindc = 1 pS
Trying `homotopy = gmin'.
Homotopy: gmin, steps: 12

Notice from spectre at dc_offset = -485e-03 during DC analysis
        `dcswp-015_dcOp', during Sweep analysis `dcswp'.
    GminDC = 1 pS is large enough to noticeably affect the DC solution.
        dV(MM3:int_di) = -25.5511 mV
        Use the `gmin_check' option to eliminate or expand this report.
    Bad pivoting is found during DC analysis. Option dc_pivot_check=yes is
        recommended for possible improvement of convergence.

writing solution to
        /homes/natelgrw/Documents/titan_foundation_model/results/designs_single_ended_cascode_current_mirror6421/single_ended_cascode_current_mirror6421_0.2_7.0_0.2_19.0_0.27_8.0_0.29_7.0_0.1_5.0_0.21_13.0_0.22_7.0_0.29_17.0_0.52_0.23_0.06/spectre.dc

Maximum value achieved for any signal of each quantity: 
V: V(vdd!) = 1 V
I: I(V0:p) = 3.029 nA
Convergence achieved in 200 iterations.
DC simulation time: CPU = 15.457 ms, elapsed = 34.4009 ms.
Total time required for dc analysis `dcswp-015_dcOp': CPU = 15.502 ms, elapsed
        = 34.4448 ms, util. = 45%.
Time accumulated: CPU = 568.926 ms, elapsed = 1.89406 s.
Peak resident memory used = 209 Mbytes.


+++++++++++++++++++++++++++++++++++
dcswp: dc_offset = -484e-03 (1.6 %)
+++++++++++++++++++++++++++++++++++
Time for dcswp itNum=16: CPU = 98 us, elapsed = 97.99 us.
Time accumulated: CPU = 569.086 ms, elapsed = 1.89422 s.
Peak resident memory used = 209 Mbytes.


****************************
DC Analysis `dcswp-016_dcOp'
****************************

Opening the PSF file
        ./single_ended_cascode_current_mirror6421_0.2_7.0_0.2_19.0_0.27_8.0_0.29_7.0_0.1_5.0_0.21_13.0_0.22_7.0_0.29_17.0_0.52_0.23_0.06.raw/dcswp-016_dcOp.dc
        ...
Important parameter values:
    reltol = 1e-03
    abstol(V) = 1 uV
    abstol(I) = 1 pA
    temp = 27 C
    tnom = 27 C
    tempeffects = all
    gmindc = 1 pS
Trying `homotopy = gmin'.
Homotopy: gmin, steps: 12

Notice from spectre at dc_offset = -484e-03 during DC analysis
        `dcswp-016_dcOp', during Sweep analysis `dcswp'.
    GminDC = 1 pS is large enough to noticeably affect the DC solution.
        dV(MM3:int_di) = -25.551 mV
        Use the `gmin_check' option to eliminate or expand this report.
    Bad pivoting is found during DC analysis. Option dc_pivot_check=yes is
        recommended for possible improvement of convergence.

writing solution to
        /homes/natelgrw/Documents/titan_foundation_model/results/designs_single_ended_cascode_current_mirror6421/single_ended_cascode_current_mirror6421_0.2_7.0_0.2_19.0_0.27_8.0_0.29_7.0_0.1_5.0_0.21_13.0_0.22_7.0_0.29_17.0_0.52_0.23_0.06/spectre.dc

Maximum value achieved for any signal of each quantity: 
V: V(vdd!) = 1 V
I: I(V0:p) = 3.028 nA
Convergence achieved in 201 iterations.
DC simulation time: CPU = 15.519 ms, elapsed = 22.4569 ms.
Total time required for dc analysis `dcswp-016_dcOp': CPU = 15.568 ms, elapsed
        = 22.505 ms, util. = 69.2%.
Time accumulated: CPU = 584.992 ms, elapsed = 1.92124 s.
Peak resident memory used = 209 Mbytes.


+++++++++++++++++++++++++++++++++++
dcswp: dc_offset = -483e-03 (1.7 %)
+++++++++++++++++++++++++++++++++++
Time for dcswp itNum=17: CPU = 97 us, elapsed = 97.0364 us.
Time accumulated: CPU = 585.15 ms, elapsed = 1.9214 s.
Peak resident memory used = 209 Mbytes.


****************************
DC Analysis `dcswp-017_dcOp'
****************************

Opening the PSF file
        ./single_ended_cascode_current_mirror6421_0.2_7.0_0.2_19.0_0.27_8.0_0.29_7.0_0.1_5.0_0.21_13.0_0.22_7.0_0.29_17.0_0.52_0.23_0.06.raw/dcswp-017_dcOp.dc
        ...
Important parameter values:
    reltol = 1e-03
    abstol(V) = 1 uV
    abstol(I) = 1 pA
    temp = 27 C
    tnom = 27 C
    tempeffects = all
    gmindc = 1 pS
Trying `homotopy = gmin'.
Homotopy: gmin, steps: 12

Notice from spectre at dc_offset = -483e-03 during DC analysis
        `dcswp-017_dcOp', during Sweep analysis `dcswp'.
    GminDC = 1 pS is large enough to noticeably affect the DC solution.
        dV(MM3:int_di) = -25.551 mV
        Use the `gmin_check' option to eliminate or expand this report.
    Bad pivoting is found during DC analysis. Option dc_pivot_check=yes is
        recommended for possible improvement of convergence.

writing solution to
        /homes/natelgrw/Documents/titan_foundation_model/results/designs_single_ended_cascode_current_mirror6421/single_ended_cascode_current_mirror6421_0.2_7.0_0.2_19.0_0.27_8.0_0.29_7.0_0.1_5.0_0.21_13.0_0.22_7.0_0.29_17.0_0.52_0.23_0.06/spectre.dc

Maximum value achieved for any signal of each quantity: 
V: V(vdd!) = 1 V
I: I(V0:p) = 3.028 nA
Convergence achieved in 201 iterations.
DC simulation time: CPU = 15.038 ms, elapsed = 22.3911 ms.
Total time required for dc analysis `dcswp-017_dcOp': CPU = 15.085 ms, elapsed
        = 22.4359 ms, util. = 67.2%.
Time accumulated: CPU = 600.643 ms, elapsed = 1.94826 s.
Peak resident memory used = 209 Mbytes.


+++++++++++++++++++++++++++++++++++
dcswp: dc_offset = -482e-03 (1.8 %)
+++++++++++++++++++++++++++++++++++
Time for dcswp itNum=18: CPU = 115 us, elapsed = 116.11 us.
Time accumulated: CPU = 600.821 ms, elapsed = 1.94844 s.
Peak resident memory used = 209 Mbytes.


****************************
DC Analysis `dcswp-018_dcOp'
****************************

Opening the PSF file
        ./single_ended_cascode_current_mirror6421_0.2_7.0_0.2_19.0_0.27_8.0_0.29_7.0_0.1_5.0_0.21_13.0_0.22_7.0_0.29_17.0_0.52_0.23_0.06.raw/dcswp-018_dcOp.dc
        ...
Important parameter values:
    reltol = 1e-03
    abstol(V) = 1 uV
    abstol(I) = 1 pA
    temp = 27 C
    tnom = 27 C
    tempeffects = all
    gmindc = 1 pS
Trying `homotopy = gmin'.
Homotopy: gmin, steps: 12

Notice from spectre at dc_offset = -482e-03 during DC analysis
        `dcswp-018_dcOp', during Sweep analysis `dcswp'.
    GminDC = 1 pS is large enough to noticeably affect the DC solution.
        dV(MM3:int_di) = -25.551 mV
        Use the `gmin_check' option to eliminate or expand this report.
    Bad pivoting is found during DC analysis. Option dc_pivot_check=yes is
        recommended for possible improvement of convergence.


Spectre received SIGINT.
About to end simulation, please wait for a moment...
Licensing Information:
Lic Summary:
[18:34:10.171219] Cdslmd servers:@mtlcadlic1
[18:34:10.695544] Feature usage summary:
[18:34:10.695544] Virtuoso_Multi_mode_Simulation


Warning from spectre at dc_offset = -482e-03 during DC analysis
        `dcswp-018_dcOp', during Sweep analysis `dcswp'.
    WARNING (SPECTRE-16001): Sweep iteration for `dc_offset' = -0.482
        terminated prematurely because of the following error(s):

Error found by spectre at dc_offset = -482e-03 during DC analysis
        `dcswp-018_dcOp', during Sweep analysis `dcswp'.
    ERROR (SPECTRE-25): The simulation is stopped either by the user or the
        farm.


Aggregate audit (6:34:10 PM, Thur Aug 7, 2025):
Time used: CPU = 618 ms, elapsed = 2.07 s, util. = 29.8%.
Time spent in licensing: elapsed = 38.2 ms.
Peak memory used = 209 Mbytes.
Simulation started at: 6:34:08 PM, Thur Aug 7, 2025, ended at: 6:34:10 PM, Thur
        Aug 7, 2025, with elapsed time (wall clock): 2.07 s.
spectre completes with 1 error, 4 warnings, and 43 notices.
